<configuration>
    <input>
        <net-file value="4x4.net.xml"/>
        <route-files value="routes.rou.xml"/>
    </input>
    <time>
        <begin value="0"/>
    </time>
</configuration>
