<?xml version="1.0" encoding="UTF-8"?>

<!-- generated on 2023-07-10 22:25:47.425996 by randomTrips.py v1_17_0+0000-737931d58da
<configuration>
    <net-file value="network/r1.net.xml"/>
    <route-file value="network/r1_route.rou.xml"/>
    <end value="1000.0"/>
    <validate value="True"/>
</configuration>
-->

<!-- generated on 2023-07-10 22:25:47 by Eclipse SUMO duarouter Version 1.17.0
<configuration xmlns:xsi="http://www.w3.org/2001/XMLSchema-instance" xsi:noNamespaceSchemaLocation="http://sumo.dlr.de/xsd/duarouterConfiguration.xsd">

    <input>
        <net-file value="network/r1.net.xml"/>
        <route-files value="trips.trips.xml"/>
    </input>

    <output>
        <output-file value="network/r1_route.rou.xml"/>
        <alternatives-output value="NUL"/>
    </output>

    <time>
        <begin value="0"/>
        <end value="1000.0"/>
    </time>

    <report>
        <no-warnings value="true"/>
        <ignore-errors value="true"/>
        <no-step-log value="true"/>
    </report>

</configuration>
-->

<routes xmlns:xsi="http://www.w3.org/2001/XMLSchema-instance" xsi:noNamespaceSchemaLocation="http://sumo.dlr.de/xsd/routes_file.xsd">
    <vehicle id="0" depart="68.0">
        <route edges="left0A0 A0A1"/>
    </vehicle>
    <vehicle id="1" depart="70.0">
        <route edges="B0A0 A0left0"/>
    </vehicle>
    <vehicle id="2" depart="73.0">
        <route edges="left1A1 A1B1 B1B0 B0bottom1"/>
    </vehicle>
    <vehicle id="3" depart="112.0">
        <route edges="top0A1 A1A0 A0B0"/>
    </vehicle>
    <vehicle id="5" depart="120.0">
        <route edges="A1B1 B1B0 B0A0"/>
    </vehicle>
    <vehicle id="6" depart="139.0">
        <route edges="A0A1 A1B1 B1B0 B0A0 A0left0"/>
    </vehicle>
    <vehicle id="7" depart="146.0">
        <route edges="left0A0 A0A1 A1B1 B1B0 B0A0"/>
    </vehicle>
    <vehicle id="9" depart="154.0">
        <route edges="right0B0 B0A0 A0A1"/>
    </vehicle>
    <vehicle id="10" depart="158.0">
        <route edges="right0B0 B0A0 A0A1 A1B1 B1B0 B0right0"/>
    </vehicle>
    <vehicle id="11" depart="163.0">
        <route edges="B0B1 B1A1 A1A0 A0bottom0"/>
    </vehicle>
    <vehicle id="12" depart="172.0">
        <route edges="top1B1 B1B0 B0A0 A0A1 A1B1"/>
    </vehicle>
    <vehicle id="13" depart="175.0">
        <route edges="A0B0"/>
    </vehicle>
    <vehicle id="14" depart="175.0">
        <route edges="right1B1 B1A1 A1A0 A0B0 B0B1"/>
    </vehicle>
    <vehicle id="15" depart="183.0">
        <route edges="right0B0 B0A0 A0A1 A1B1 B1B0 B0right0"/>
    </vehicle>
    <vehicle id="16" depart="198.0">
        <route edges="bottom0A0 A0A1 A1B1 B1top1"/>
    </vehicle>
    <vehicle id="18" depart="199.0">
        <route edges="right1B1 B1A1 A1A0 A0B0 B0B1"/>
    </vehicle>
    <vehicle id="19" depart="215.0">
        <route edges="right1B1 B1A1 A1A0 A0B0 B0B1"/>
    </vehicle>
    <vehicle id="20" depart="221.0">
        <route edges="left1A1 A1B1 B1B0 B0A0 A0A1"/>
    </vehicle>
    <vehicle id="22" depart="228.0">
        <route edges="A0B0 B0B1 B1A1 A1A0 A0left0"/>
    </vehicle>
    <vehicle id="23" depart="229.0">
        <route edges="A0B0 B0B1 B1A1 A1A0"/>
    </vehicle>
    <vehicle id="24" depart="236.0">
        <route edges="left0A0 A0A1 A1B1"/>
    </vehicle>
    <vehicle id="25" depart="239.0">
        <route edges="B0B1 B1A1 A1A0 A0left0"/>
    </vehicle>
    <vehicle id="26" depart="240.0">
        <route edges="B0A0 A0A1 A1B1 B1right1"/>
    </vehicle>
    <vehicle id="27" depart="255.0">
        <route edges="left0A0 A0B0 B0B1"/>
    </vehicle>
    <vehicle id="28" depart="256.0">
        <route edges="A1A0 A0B0 B0right0"/>
    </vehicle>
    <vehicle id="29" depart="263.0">
        <route edges="A1A0 A0B0 B0B1 B1A1 A1left1"/>
    </vehicle>
    <vehicle id="30" depart="267.0">
        <route edges="top1B1 B1B0 B0bottom1"/>
    </vehicle>
    <vehicle id="31" depart="279.0">
        <route edges="bottom0A0 A0B0 B0bottom1"/>
    </vehicle>
    <vehicle id="32" depart="280.0">
        <route edges="right1B1 B1A1"/>
    </vehicle>
    <vehicle id="33" depart="281.0">
        <route edges="A1B1 B1B0 B0A0 A0A1"/>
    </vehicle>
    <vehicle id="34" depart="289.0">
        <route edges="B0B1 B1A1 A1A0"/>
    </vehicle>
    <vehicle id="35" depart="290.0">
        <route edges="A1B1 B1top1"/>
    </vehicle>
    <vehicle id="36" depart="292.0">
        <route edges="top0A1 A1B1"/>
    </vehicle>
    <vehicle id="37" depart="293.0">
        <route edges="left0A0 A0A1 A1left1"/>
    </vehicle>
    <vehicle id="38" depart="303.0">
        <route edges="top0A1 A1B1 B1B0 B0A0 A0A1 A1top0"/>
    </vehicle>
    <vehicle id="39" depart="310.0">
        <route edges="B0A0 A0left0"/>
    </vehicle>
    <vehicle id="40" depart="318.0">
        <route edges="bottom0A0 A0B0 B0B1 B1A1 A1A0"/>
    </vehicle>
    <vehicle id="41" depart="319.0">
        <route edges="bottom1B0 B0B1 B1right1"/>
    </vehicle>
    <vehicle id="42" depart="334.0">
        <route edges="B1A1 A1A0 A0left0"/>
    </vehicle>
    <vehicle id="43" depart="334.0">
        <route edges="top1B1 B1B0 B0A0"/>
    </vehicle>
    <vehicle id="45" depart="344.0">
        <route edges="A0B0 B0bottom1"/>
    </vehicle>
    <vehicle id="46" depart="345.0">
        <route edges="right0B0 B0A0 A0A1 A1left1"/>
    </vehicle>
    <vehicle id="47" depart="357.0">
        <route edges="A0B0 B0B1 B1A1 A1left1"/>
    </vehicle>
    <vehicle id="48" depart="361.0">
        <route edges="top1B1 B1B0 B0A0"/>
    </vehicle>
    <vehicle id="49" depart="368.0">
        <route edges="top1B1 B1B0"/>
    </vehicle>
    <vehicle id="50" depart="369.0">
        <route edges="A0A1 A1B1 B1B0 B0right0"/>
    </vehicle>
    <vehicle id="51" depart="375.0">
        <route edges="left0A0 A0A1 A1B1 B1B0 B0A0"/>
    </vehicle>
    <vehicle id="52" depart="376.0">
        <route edges="B0A0 A0A1 A1B1 B1B0 B0bottom1"/>
    </vehicle>
    <vehicle id="53" depart="381.0">
        <route edges="A0B0 B0B1 B1A1 A1left1"/>
    </vehicle>
    <vehicle id="54" depart="394.0">
        <route edges="B1B0 B0A0 A0A1 A1B1 B1top1"/>
    </vehicle>
    <vehicle id="55" depart="397.0">
        <route edges="top0A1 A1A0"/>
    </vehicle>
    <vehicle id="56" depart="399.0">
        <route edges="bottom0A0 A0A1 A1B1 B1B0 B0A0 A0bottom0"/>
    </vehicle>
    <vehicle id="57" depart="406.0">
        <route edges="top0A1 A1B1 B1B0"/>
    </vehicle>
    <vehicle id="58" depart="407.0">
        <route edges="B0A0 A0A1 A1B1 B1B0 B0bottom1"/>
    </vehicle>
    <vehicle id="59" depart="408.0">
        <route edges="bottom1B0 B0A0 A0bottom0"/>
    </vehicle>
    <vehicle id="60" depart="409.0">
        <route edges="right0B0 B0A0"/>
    </vehicle>
    <vehicle id="61" depart="422.0">
        <route edges="right0B0 B0A0"/>
    </vehicle>
    <vehicle id="62" depart="426.0">
        <route edges="A0A1 A1B1"/>
    </vehicle>
    <vehicle id="63" depart="435.0">
        <route edges="A0A1 A1B1 B1right1"/>
    </vehicle>
    <vehicle id="64" depart="437.0">
        <route edges="top0A1 A1B1 B1B0"/>
    </vehicle>
    <vehicle id="65" depart="437.0">
        <route edges="B0A0 A0A1"/>
    </vehicle>
    <vehicle id="66" depart="439.0">
        <route edges="top0A1 A1B1 B1top1"/>
    </vehicle>
    <vehicle id="67" depart="449.0">
        <route edges="A0B0 B0B1 B1A1 A1top0"/>
    </vehicle>
    <vehicle id="68" depart="452.0">
        <route edges="A0B0 B0B1 B1A1"/>
    </vehicle>
    <vehicle id="69" depart="452.0">
        <route edges="right0B0 B0A0 A0bottom0"/>
    </vehicle>
    <vehicle id="70" depart="470.0">
        <route edges="B1B0 B0A0"/>
    </vehicle>
    <vehicle id="71" depart="471.0">
        <route edges="B0A0 A0A1 A1B1 B1B0"/>
    </vehicle>
    <vehicle id="72" depart="472.0">
        <route edges="B1A1 A1A0 A0left0"/>
    </vehicle>
    <vehicle id="73" depart="475.0">
        <route edges="bottom0A0 A0B0 B0right0"/>
    </vehicle>
    <vehicle id="75" depart="476.0">
        <route edges="top1B1 B1B0 B0bottom1"/>
    </vehicle>
    <vehicle id="76" depart="483.0">
        <route edges="B1B0 B0A0"/>
    </vehicle>
    <vehicle id="77" depart="483.0">
        <route edges="A0B0 B0B1 B1A1 A1A0 A0left0"/>
    </vehicle>
    <vehicle id="78" depart="484.0">
        <route edges="B0B1"/>
    </vehicle>
    <vehicle id="79" depart="489.0">
        <route edges="A1B1 B1B0 B0A0 A0left0"/>
    </vehicle>
    <vehicle id="80" depart="491.0">
        <route edges="A0B0 B0bottom1"/>
    </vehicle>
    <vehicle id="81" depart="493.0">
        <route edges="A1B1 B1right1"/>
    </vehicle>
    <vehicle id="82" depart="494.0">
        <route edges="right1B1 B1A1 A1A0 A0B0"/>
    </vehicle>
    <vehicle id="83" depart="494.0">
        <route edges="A1B1 B1B0 B0bottom1"/>
    </vehicle>
    <vehicle id="84" depart="496.0">
        <route edges="A1B1 B1B0 B0A0 A0bottom0"/>
    </vehicle>
    <vehicle id="85" depart="512.0">
        <route edges="top0A1 A1A0 A0B0 B0B1"/>
    </vehicle>
    <vehicle id="87" depart="514.0">
        <route edges="right0B0 B0A0 A0left0"/>
    </vehicle>
    <vehicle id="88" depart="514.0">
        <route edges="A0B0 B0B1 B1A1 A1left1"/>
    </vehicle>
    <vehicle id="89" depart="516.0">
        <route edges="B1A1 A1top0"/>
    </vehicle>
    <vehicle id="90" depart="519.0">
        <route edges="left1A1 A1B1 B1B0 B0bottom1"/>
    </vehicle>
    <vehicle id="91" depart="521.0">
        <route edges="top1B1 B1A1 A1A0 A0B0"/>
    </vehicle>
    <vehicle id="93" depart="525.0">
        <route edges="right1B1 B1B0 B0A0 A0left0"/>
    </vehicle>
    <vehicle id="94" depart="527.0">
        <route edges="A1B1 B1B0 B0A0 A0A1 A1top0"/>
    </vehicle>
    <vehicle id="95" depart="528.0">
        <route edges="B1A1 A1A0"/>
    </vehicle>
    <vehicle id="96" depart="530.0">
        <route edges="A1B1 B1right1"/>
    </vehicle>
    <vehicle id="97" depart="535.0">
        <route edges="B1B0"/>
    </vehicle>
    <vehicle id="98" depart="538.0">
        <route edges="bottom0A0 A0A1"/>
    </vehicle>
    <vehicle id="99" depart="542.0">
        <route edges="top1B1 B1B0"/>
    </vehicle>
    <vehicle id="100" depart="542.0">
        <route edges="top1B1 B1right1"/>
    </vehicle>
    <vehicle id="101" depart="547.0">
        <route edges="right1B1 B1A1 A1A0 A0bottom0"/>
    </vehicle>
    <vehicle id="102" depart="553.0">
        <route edges="B1B0 B0A0 A0left0"/>
    </vehicle>
    <vehicle id="104" depart="562.0">
        <route edges="B1A1 A1A0 A0B0 B0B1 B1top1"/>
    </vehicle>
    <vehicle id="106" depart="571.0">
        <route edges="B1B0 B0A0 A0A1 A1left1"/>
    </vehicle>
    <vehicle id="107" depart="573.0">
        <route edges="top1B1 B1B0 B0A0 A0A1 A1B1 B1top1"/>
    </vehicle>
    <vehicle id="108" depart="574.0">
        <route edges="bottom0A0 A0B0 B0right0"/>
    </vehicle>
    <vehicle id="109" depart="577.0">
        <route edges="A1A0"/>
    </vehicle>
    <vehicle id="110" depart="582.0">
        <route edges="top1B1 B1A1 A1A0 A0B0 B0B1"/>
    </vehicle>
    <vehicle id="111" depart="589.0">
        <route edges="bottom0A0 A0B0 B0right0"/>
    </vehicle>
    <vehicle id="113" depart="589.0">
        <route edges="bottom0A0 A0A1 A1B1 B1B0"/>
    </vehicle>
    <vehicle id="114" depart="592.0">
        <route edges="A1A0 A0B0 B0B1 B1top1"/>
    </vehicle>
    <vehicle id="115" depart="593.0">
        <route edges="A0B0 B0B1 B1A1 A1A0 A0bottom0"/>
    </vehicle>
    <vehicle id="116" depart="594.0">
        <route edges="bottom1B0 B0A0 A0A1 A1B1 B1B0 B0bottom1"/>
    </vehicle>
    <vehicle id="118" depart="597.0">
        <route edges="top0A1 A1A0 A0left0"/>
    </vehicle>
    <vehicle id="119" depart="599.0">
        <route edges="bottom1B0 B0B1"/>
    </vehicle>
    <vehicle id="120" depart="602.0">
        <route edges="B1A1 A1A0 A0B0 B0B1"/>
    </vehicle>
    <vehicle id="121" depart="605.0">
        <route edges="bottom0A0 A0A1 A1B1 B1right1"/>
    </vehicle>
    <vehicle id="122" depart="612.0">
        <route edges="A1B1 B1B0 B0right0"/>
    </vehicle>
    <vehicle id="123" depart="613.0">
        <route edges="A1B1 B1B0 B0A0 A0A1 A1left1"/>
    </vehicle>
    <vehicle id="124" depart="620.0">
        <route edges="left0A0 A0B0 B0B1 B1A1 A1A0"/>
    </vehicle>
    <vehicle id="125" depart="621.0">
        <route edges="B0B1 B1A1"/>
    </vehicle>
    <vehicle id="126" depart="624.0">
        <route edges="A0B0 B0B1 B1A1 A1top0"/>
    </vehicle>
    <vehicle id="127" depart="627.0">
        <route edges="top1B1 B1B0 B0A0 A0A1 A1B1 B1top1"/>
    </vehicle>
    <vehicle id="128" depart="630.0">
        <route edges="A0B0 B0B1 B1A1 A1A0 A0left0"/>
    </vehicle>
    <vehicle id="129" depart="636.0">
        <route edges="B0A0 A0A1 A1B1 B1right1"/>
    </vehicle>
    <vehicle id="130" depart="648.0">
        <route edges="top0A1 A1B1 B1right1"/>
    </vehicle>
    <vehicle id="131" depart="648.0">
        <route edges="B0B1 B1A1 A1A0 A0bottom0"/>
    </vehicle>
    <vehicle id="132" depart="655.0">
        <route edges="right1B1 B1B0 B0right0"/>
    </vehicle>
    <vehicle id="133" depart="656.0">
        <route edges="bottom1B0 B0B1 B1top1"/>
    </vehicle>
    <vehicle id="134" depart="658.0">
        <route edges="left0A0 A0A1"/>
    </vehicle>
    <vehicle id="135" depart="658.0">
        <route edges="right1B1 B1A1 A1A0"/>
    </vehicle>
    <vehicle id="136" depart="658.0">
        <route edges="left0A0 A0B0 B0B1 B1top1"/>
    </vehicle>
    <vehicle id="137" depart="661.0">
        <route edges="A1A0 A0B0"/>
    </vehicle>
    <vehicle id="140" depart="664.0">
        <route edges="left1A1 A1A0 A0left0"/>
    </vehicle>
    <vehicle id="141" depart="665.0">
        <route edges="left0A0 A0B0 B0B1 B1A1 A1A0"/>
    </vehicle>
    <vehicle id="142" depart="669.0">
        <route edges="B1B0 B0A0 A0A1 A1B1 B1right1"/>
    </vehicle>
    <vehicle id="143" depart="679.0">
        <route edges="right1B1 B1A1 A1A0 A0B0"/>
    </vehicle>
    <vehicle id="144" depart="681.0">
        <route edges="B1A1 A1A0"/>
    </vehicle>
    <vehicle id="146" depart="681.0">
        <route edges="left0A0 A0B0 B0B1 B1A1 A1A0"/>
    </vehicle>
    <vehicle id="147" depart="683.0">
        <route edges="left1A1 A1B1 B1B0 B0A0"/>
    </vehicle>
    <vehicle id="149" depart="686.0">
        <route edges="A0B0 B0B1 B1right1"/>
    </vehicle>
    <vehicle id="150" depart="689.0">
        <route edges="top0A1 A1B1 B1B0 B0A0"/>
    </vehicle>
    <vehicle id="151" depart="692.0">
        <route edges="right1B1 B1A1 A1A0 A0B0 B0B1"/>
    </vehicle>
    <vehicle id="152" depart="697.0">
        <route edges="A1A0 A0bottom0"/>
    </vehicle>
    <vehicle id="153" depart="699.0">
        <route edges="B0A0 A0A1 A1B1 B1right1"/>
    </vehicle>
    <vehicle id="154" depart="703.0">
        <route edges="right0B0 B0A0 A0A1 A1B1 B1B0"/>
    </vehicle>
    <vehicle id="155" depart="708.0">
        <route edges="top0A1 A1A0 A0left0"/>
    </vehicle>
    <vehicle id="157" depart="711.0">
        <route edges="right0B0 B0B1 B1right1"/>
    </vehicle>
    <vehicle id="158" depart="713.0">
        <route edges="B1A1 A1A0 A0B0 B0B1"/>
    </vehicle>
    <vehicle id="159" depart="714.0">
        <route edges="A1A0 A0B0 B0B1 B1right1"/>
    </vehicle>
    <vehicle id="160" depart="714.0">
        <route edges="right1B1 B1top1"/>
    </vehicle>
    <vehicle id="161" depart="715.0">
        <route edges="right0B0 B0B1 B1right1"/>
    </vehicle>
    <vehicle id="162" depart="720.0">
        <route edges="A0A1 A1B1 B1B0 B0right0"/>
    </vehicle>
    <vehicle id="163" depart="723.0">
        <route edges="B0B1 B1right1"/>
    </vehicle>
    <vehicle id="164" depart="725.0">
        <route edges="right0B0 B0A0 A0A1 A1B1 B1B0"/>
    </vehicle>
    <vehicle id="165" depart="734.0">
        <route edges="right0B0 B0B1 B1A1 A1A0"/>
    </vehicle>
    <vehicle id="166" depart="736.0">
        <route edges="right0B0 B0B1 B1A1 A1A0 A0B0"/>
    </vehicle>
    <vehicle id="167" depart="738.0">
        <route edges="right1B1 B1B0"/>
    </vehicle>
    <vehicle id="168" depart="744.0">
        <route edges="A1B1 B1B0"/>
    </vehicle>
    <vehicle id="170" depart="746.0">
        <route edges="right0B0 B0A0 A0left0"/>
    </vehicle>
    <vehicle id="171" depart="747.0">
        <route edges="A0A1 A1B1 B1B0 B0A0 A0left0"/>
    </vehicle>
    <vehicle id="173" depart="748.0">
        <route edges="top1B1 B1A1 A1A0"/>
    </vehicle>
    <vehicle id="174" depart="749.0">
        <route edges="left0A0 A0A1 A1left1"/>
    </vehicle>
    <vehicle id="175" depart="750.0">
        <route edges="top1B1 B1B0 B0A0"/>
    </vehicle>
    <vehicle id="176" depart="753.0">
        <route edges="top1B1 B1A1 A1A0 A0B0"/>
    </vehicle>
    <vehicle id="177" depart="758.0">
        <route edges="top1B1 B1B0 B0A0 A0bottom0"/>
    </vehicle>
    <vehicle id="178" depart="758.0">
        <route edges="top1B1 B1A1 A1A0"/>
    </vehicle>
    <vehicle id="179" depart="759.0">
        <route edges="A0B0 B0B1 B1A1 A1left1"/>
    </vehicle>
    <vehicle id="180" depart="763.0">
        <route edges="left1A1 A1B1"/>
    </vehicle>
    <vehicle id="181" depart="763.0">
        <route edges="bottom1B0 B0A0"/>
    </vehicle>
    <vehicle id="182" depart="769.0">
        <route edges="B1A1 A1A0 A0B0 B0B1"/>
    </vehicle>
    <vehicle id="183" depart="770.0">
        <route edges="B0A0 A0A1 A1B1 B1B0 B0right0"/>
    </vehicle>
    <vehicle id="184" depart="771.0">
        <route edges="A0A1 A1B1 B1right1"/>
    </vehicle>
    <vehicle id="185" depart="772.0">
        <route edges="bottom0A0 A0B0 B0right0"/>
    </vehicle>
    <vehicle id="186" depart="772.0">
        <route edges="left1A1 A1B1 B1B0 B0bottom1"/>
    </vehicle>
    <vehicle id="187" depart="775.0">
        <route edges="B0B1 B1A1 A1A0 A0B0"/>
    </vehicle>
    <vehicle id="188" depart="781.0">
        <route edges="left0A0 A0A1 A1B1"/>
    </vehicle>
    <vehicle id="190" depart="784.0">
        <route edges="left1A1 A1A0"/>
    </vehicle>
    <vehicle id="191" depart="786.0">
        <route edges="B0A0 A0A1 A1left1"/>
    </vehicle>
    <vehicle id="192" depart="786.0">
        <route edges="B1A1 A1A0"/>
    </vehicle>
    <vehicle id="193" depart="788.0">
        <route edges="A1A0 A0B0 B0B1 B1A1 A1left1"/>
    </vehicle>
    <vehicle id="194" depart="789.0">
        <route edges="top1B1 B1B0 B0bottom1"/>
    </vehicle>
    <vehicle id="195" depart="793.0">
        <route edges="top0A1 A1A0 A0B0 B0B1"/>
    </vehicle>
    <vehicle id="196" depart="799.0">
        <route edges="B0A0"/>
    </vehicle>
    <vehicle id="198" depart="805.0">
        <route edges="B1A1 A1A0 A0B0 B0B1"/>
    </vehicle>
    <vehicle id="199" depart="808.0">
        <route edges="left0A0 A0A1 A1top0"/>
    </vehicle>
    <vehicle id="200" depart="812.0">
        <route edges="B1B0 B0A0 A0left0"/>
    </vehicle>
    <vehicle id="201" depart="812.0">
        <route edges="B1B0 B0A0 A0A1 A1B1 B1right1"/>
    </vehicle>
    <vehicle id="202" depart="813.0">
        <route edges="right0B0 B0A0 A0bottom0"/>
    </vehicle>
    <vehicle id="204" depart="815.0">
        <route edges="left0A0 A0A1 A1B1"/>
    </vehicle>
    <vehicle id="205" depart="827.0">
        <route edges="right1B1 B1A1"/>
    </vehicle>
    <vehicle id="206" depart="836.0">
        <route edges="left0A0 A0A1 A1B1 B1B0 B0A0 A0left0"/>
    </vehicle>
    <vehicle id="207" depart="839.0">
        <route edges="A1B1 B1B0 B0A0 A0A1"/>
    </vehicle>
    <vehicle id="208" depart="847.0">
        <route edges="A1B1 B1B0 B0A0 A0A1 A1top0"/>
    </vehicle>
    <vehicle id="209" depart="847.0">
        <route edges="right1B1 B1A1 A1A0 A0B0"/>
    </vehicle>
    <vehicle id="210" depart="848.0">
        <route edges="B1A1 A1A0 A0B0 B0bottom1"/>
    </vehicle>
    <vehicle id="211" depart="850.0">
        <route edges="A1B1 B1B0 B0right0"/>
    </vehicle>
    <vehicle id="212" depart="851.0">
        <route edges="B1B0 B0A0 A0left0"/>
    </vehicle>
    <vehicle id="213" depart="852.0">
        <route edges="left0A0 A0A1"/>
    </vehicle>
    <vehicle id="214" depart="854.0">
        <route edges="right0B0 B0B1 B1A1"/>
    </vehicle>
    <vehicle id="215" depart="854.0">
        <route edges="A0B0 B0B1 B1A1 A1left1"/>
    </vehicle>
    <vehicle id="216" depart="863.0">
        <route edges="A1A0 A0B0 B0B1 B1top1"/>
    </vehicle>
    <vehicle id="217" depart="866.0">
        <route edges="bottom0A0 A0A1"/>
    </vehicle>
    <vehicle id="218" depart="872.0">
        <route edges="A1B1 B1B0"/>
    </vehicle>
    <vehicle id="220" depart="873.0">
        <route edges="left0A0 A0B0 B0B1 B1top1"/>
    </vehicle>
    <vehicle id="221" depart="874.0">
        <route edges="bottom1B0 B0B1 B1top1"/>
    </vehicle>
    <vehicle id="222" depart="875.0">
        <route edges="top0A1 A1A0 A0B0 B0B1"/>
    </vehicle>
    <vehicle id="223" depart="875.0">
        <route edges="left1A1 A1B1 B1B0 B0A0"/>
    </vehicle>
    <vehicle id="224" depart="877.0">
        <route edges="right1B1 B1B0 B0A0"/>
    </vehicle>
    <vehicle id="225" depart="877.0">
        <route edges="top0A1 A1A0 A0B0 B0right0"/>
    </vehicle>
    <vehicle id="227" depart="887.0">
        <route edges="A1B1 B1B0 B0bottom1"/>
    </vehicle>
    <vehicle id="228" depart="891.0">
        <route edges="right0B0 B0A0"/>
    </vehicle>
    <vehicle id="229" depart="891.0">
        <route edges="left0A0 A0B0 B0B1 B1A1 A1A0"/>
    </vehicle>
    <vehicle id="230" depart="893.0">
        <route edges="A0B0 B0B1 B1A1 A1A0"/>
    </vehicle>
    <vehicle id="231" depart="895.0">
        <route edges="B0A0 A0A1 A1B1"/>
    </vehicle>
    <vehicle id="232" depart="896.0">
        <route edges="bottom0A0 A0A1 A1B1 B1B0 B0A0 A0bottom0"/>
    </vehicle>
    <vehicle id="233" depart="897.0">
        <route edges="A1B1 B1B0 B0right0"/>
    </vehicle>
    <vehicle id="234" depart="897.0">
        <route edges="left1A1 A1A0 A0B0"/>
    </vehicle>
    <vehicle id="236" depart="898.0">
        <route edges="B1A1 A1A0 A0left0"/>
    </vehicle>
    <vehicle id="237" depart="910.0">
        <route edges="B1A1 A1A0 A0B0 B0B1 B1right1"/>
    </vehicle>
    <vehicle id="238" depart="911.0">
        <route edges="bottom1B0 B0right0"/>
    </vehicle>
    <vehicle id="239" depart="916.0">
        <route edges="right1B1 B1A1"/>
    </vehicle>
    <vehicle id="241" depart="918.0">
        <route edges="B0B1 B1A1"/>
    </vehicle>
    <vehicle id="242" depart="919.0">
        <route edges="right1B1 B1top1"/>
    </vehicle>
    <vehicle id="243" depart="920.0">
        <route edges="B1A1 A1A0 A0B0 B0right0"/>
    </vehicle>
    <vehicle id="244" depart="922.0">
        <route edges="bottom0A0 A0B0 B0B1"/>
    </vehicle>
    <vehicle id="245" depart="926.0">
        <route edges="A1B1 B1B0 B0A0 A0left0"/>
    </vehicle>
    <vehicle id="247" depart="931.0">
        <route edges="B0B1 B1A1 A1A0 A0B0 B0bottom1"/>
    </vehicle>
    <vehicle id="248" depart="932.0">
        <route edges="B1A1 A1A0 A0bottom0"/>
    </vehicle>
    <vehicle id="249" depart="935.0">
        <route edges="B1B0 B0A0 A0bottom0"/>
    </vehicle>
    <vehicle id="250" depart="936.0">
        <route edges="bottom1B0 B0A0 A0A1"/>
    </vehicle>
    <vehicle id="251" depart="936.0">
        <route edges="B1A1 A1A0 A0B0 B0B1"/>
    </vehicle>
    <vehicle id="252" depart="937.0">
        <route edges="A0A1 A1B1 B1B0 B0bottom1"/>
    </vehicle>
    <vehicle id="253" depart="940.0">
        <route edges="A1A0 A0B0 B0B1 B1A1 A1top0"/>
    </vehicle>
    <vehicle id="254" depart="944.0">
        <route edges="A0A1 A1left1"/>
    </vehicle>
    <vehicle id="255" depart="945.0">
        <route edges="A1B1"/>
    </vehicle>
    <vehicle id="256" depart="948.0">
        <route edges="right0B0 B0A0 A0A1 A1left1"/>
    </vehicle>
    <vehicle id="257" depart="948.0">
        <route edges="right0B0 B0A0 A0A1 A1B1 B1B0"/>
    </vehicle>
    <vehicle id="259" depart="953.0">
        <route edges="A0A1 A1B1 B1B0 B0A0"/>
    </vehicle>
    <vehicle id="260" depart="953.0">
        <route edges="top1B1 B1B0 B0A0 A0A1 A1B1"/>
    </vehicle>
    <vehicle id="261" depart="956.0">
        <route edges="left0A0 A0B0 B0B1 B1A1"/>
    </vehicle>
    <vehicle id="262" depart="960.0">
        <route edges="left0A0 A0B0 B0B1 B1A1"/>
    </vehicle>
    <vehicle id="263" depart="963.0">
        <route edges="top1B1 B1B0 B0A0 A0left0"/>
    </vehicle>
    <vehicle id="264" depart="965.0">
        <route edges="A0A1 A1B1 B1B0 B0A0 A0bottom0"/>
    </vehicle>
    <vehicle id="265" depart="966.0">
        <route edges="A1A0 A0B0 B0bottom1"/>
    </vehicle>
    <vehicle id="266" depart="967.0">
        <route edges="bottom1B0 B0A0 A0left0"/>
    </vehicle>
    <vehicle id="267" depart="967.0">
        <route edges="left1A1 A1A0 A0B0 B0B1 B1A1"/>
    </vehicle>
    <vehicle id="268" depart="972.0">
        <route edges="A1A0 A0B0 B0B1"/>
    </vehicle>
    <vehicle id="269" depart="972.0">
        <route edges="left1A1 A1A0 A0B0"/>
    </vehicle>
    <vehicle id="270" depart="976.0">
        <route edges="right1B1 B1top1"/>
    </vehicle>
    <vehicle id="272" depart="980.0">
        <route edges="B0A0 A0A1 A1B1 B1B0 B0bottom1"/>
    </vehicle>
    <vehicle id="273" depart="982.0">
        <route edges="top1B1 B1A1 A1left1"/>
    </vehicle>
    <vehicle id="274" depart="986.0">
        <route edges="left1A1 A1A0 A0B0"/>
    </vehicle>
    <vehicle id="275" depart="988.0">
        <route edges="left1A1 A1B1 B1B0 B0bottom1"/>
    </vehicle>
    <vehicle id="276" depart="989.0">
        <route edges="A0B0 B0B1 B1A1"/>
    </vehicle>
    <vehicle id="277" depart="993.0">
        <route edges="right1B1 B1A1 A1A0 A0B0 B0B1"/>
    </vehicle>
    <vehicle id="278" depart="993.0">
        <route edges="A0B0 B0B1 B1top1"/>
    </vehicle>
    <vehicle id="279" depart="994.0">
        <route edges="right0B0 B0A0 A0A1 A1B1"/>
    </vehicle>
    <vehicle id="281" depart="997.0">
        <route edges="bottom0A0 A0A1 A1B1"/>
    </vehicle>
    <vehicle id="282" depart="997.0">
        <route edges="right1B1 B1B0"/>
    </vehicle>
    <vehicle id="283" depart="998.0">
        <route edges="A0B0 B0B1 B1top1"/>
    </vehicle>
    <vehicle id="284" depart="1001.0">
        <route edges="left0A0 A0A1 A1B1 B1B0"/>
    </vehicle>
    <vehicle id="285" depart="1006.0">
        <route edges="left1A1 A1B1 B1B0 B0A0 A0A1 A1left1"/>
    </vehicle>
    <vehicle id="286" depart="1007.0">
        <route edges="left1A1 A1B1 B1top1"/>
    </vehicle>
    <vehicle id="288" depart="1009.0">
        <route edges="bottom0A0 A0A1 A1top0"/>
    </vehicle>
    <vehicle id="289" depart="1010.0">
        <route edges="B1A1 A1A0 A0B0 B0right0"/>
    </vehicle>
    <vehicle id="290" depart="1011.0">
        <route edges="B0A0 A0A1 A1B1 B1B0"/>
    </vehicle>
    <vehicle id="291" depart="1012.0">
        <route edges="right1B1 B1A1 A1A0 A0B0"/>
    </vehicle>
    <vehicle id="292" depart="1015.0">
        <route edges="top0A1 A1A0 A0left0"/>
    </vehicle>
    <vehicle id="295" depart="1016.0">
        <route edges="right1B1 B1A1 A1A0 A0bottom0"/>
    </vehicle>
    <vehicle id="297" depart="1018.0">
        <route edges="B0B1 B1right1"/>
    </vehicle>
    <vehicle id="298" depart="1018.0">
        <route edges="left1A1 A1A0"/>
    </vehicle>
    <vehicle id="299" depart="1019.0">
        <route edges="A0A1 A1B1 B1top1"/>
    </vehicle>
    <vehicle id="300" depart="1020.0">
        <route edges="A0B0 B0right0"/>
    </vehicle>
    <vehicle id="302" depart="1021.0">
        <route edges="left1A1 A1B1 B1B0 B0bottom1"/>
    </vehicle>
    <vehicle id="304" depart="1022.0">
        <route edges="A0B0 B0B1 B1A1 A1A0 A0left0"/>
    </vehicle>
    <vehicle id="305" depart="1027.0">
        <route edges="left1A1 A1A0"/>
    </vehicle>
    <vehicle id="306" depart="1035.0">
        <route edges="bottom1B0 B0A0 A0A1 A1top0"/>
    </vehicle>
    <vehicle id="307" depart="1037.0">
        <route edges="bottom0A0 A0A1 A1left1"/>
    </vehicle>
    <vehicle id="308" depart="1040.0">
        <route edges="left1A1 A1B1"/>
    </vehicle>
    <vehicle id="309" depart="1050.0">
        <route edges="left1A1 A1A0"/>
    </vehicle>
    <vehicle id="312" depart="1056.0">
        <route edges="bottom0A0 A0B0 B0B1 B1A1"/>
    </vehicle>
    <vehicle id="313" depart="1065.0">
        <route edges="A1A0 A0left0"/>
    </vehicle>
    <vehicle id="314" depart="1073.0">
        <route edges="B1B0 B0right0"/>
    </vehicle>
    <vehicle id="315" depart="1075.0">
        <route edges="top1B1 B1B0 B0A0"/>
    </vehicle>
    <vehicle id="317" depart="1077.0">
        <route edges="A1B1 B1B0 B0A0 A0left0"/>
    </vehicle>
    <vehicle id="319" depart="1078.0">
        <route edges="bottom0A0 A0B0 B0B1 B1A1 A1A0"/>
    </vehicle>
    <vehicle id="320" depart="1079.0">
        <route edges="top1B1 B1B0 B0A0"/>
    </vehicle>
    <vehicle id="321" depart="1083.0">
        <route edges="left1A1 A1A0 A0bottom0"/>
    </vehicle>
    <vehicle id="322" depart="1085.0">
        <route edges="right1B1 B1A1 A1top0"/>
    </vehicle>
    <vehicle id="323" depart="1085.0">
        <route edges="right1B1 B1A1 A1A0 A0B0 B0B1"/>
    </vehicle>
    <vehicle id="324" depart="1088.0">
        <route edges="B1B0 B0A0 A0A1 A1top0"/>
    </vehicle>
    <vehicle id="326" depart="1089.0">
        <route edges="top1B1 B1A1 A1top0"/>
    </vehicle>
    <vehicle id="327" depart="1094.0">
        <route edges="right1B1 B1A1 A1left1"/>
    </vehicle>
    <vehicle id="328" depart="1094.0">
        <route edges="A0B0 B0bottom1"/>
    </vehicle>
    <vehicle id="329" depart="1100.0">
        <route edges="A0A1 A1B1 B1B0 B0A0 A0bottom0"/>
    </vehicle>
    <vehicle id="330" depart="1100.0">
        <route edges="bottom1B0 B0B1 B1A1 A1A0"/>
    </vehicle>
    <vehicle id="331" depart="1101.0">
        <route edges="top1B1 B1A1 A1A0 A0B0"/>
    </vehicle>