<?xml version="1.0" encoding="UTF-8"?>

<!-- generated on 2023-07-02 10:15:11.942736 by randomTrips.py v1_17_0+0000-737931d58da
<configuration>
    <net-file value="network/2x2.net.xml"/>
    <route-file value="network/routes.rou.xml"/>
    <end value="2000.0"/>
    <validate value="True"/>
</configuration>
-->

<!-- generated on 2023-07-02 10:15:11 by Eclipse SUMO duarouter Version 1.17.0
<configuration xmlns:xsi="http://www.w3.org/2001/XMLSchema-instance" xsi:noNamespaceSchemaLocation="http://sumo.dlr.de/xsd/duarouterConfiguration.xsd">

    <input>
        <net-file value="network/2x2.net.xml"/>
        <route-files value="trips.trips.xml"/>
    </input>

    <output>
        <output-file value="network/routes.rou.xml"/>
        <alternatives-output value="NUL"/>
    </output>

    <time>
        <begin value="0"/>
        <end value="2000.0"/>
    </time>

    <report>
        <no-warnings value="true"/>
        <ignore-errors value="true"/>
        <no-step-log value="true"/>
    </report>

</configuration>
-->

<routes xmlns:xsi="http://www.w3.org/2001/XMLSchema-instance" xsi:noNamespaceSchemaLocation="http://sumo.dlr.de/xsd/routes_file.xsd">
    <vType accel="1.0" decel="4.5" id="standard_car" length="5.0" minGap="2.5" maxSpeed="25" sigma="0.5" />
    <vehicle id="0" depart="0.0">
        <route edges="h22 v12 -h12"/>
    </vehicle>
    <vehicle id="1" depart="20.0">
        <route edges="-v11 -h12 -v22 -h23"/>
    </vehicle>
    <vehicle id="2" depart="61.0">
        <route edges="h23 h22 h21"/>
    </vehicle>
    <vehicle id="3" depart="70.0">
        <route edges="v22 -h13"/>
    </vehicle>
    <vehicle id="4" depart="84.0">
        <route edges="-v21 -v22 h22 v12 -h12"/>
    </vehicle>
    <vehicle id="5" depart="89.0">
        <route edges="-h22 v22 h12 h11"/>
    </vehicle>
    <vehicle id="6" depart="95.0">
        <route edges="-h11 -h12 -v22 -h23"/>
    </vehicle>
    <vehicle id="7" depart="108.0">
        <route edges="h22 v12 h11"/>
    </vehicle>
    <vehicle id="8" depart="108.0">
        <route edges="-h22 v22 h12"/>
    </vehicle>
    <vehicle id="9" depart="123.0">
        <route edges="v12 -h12"/>
    </vehicle>
    <vehicle id="10" depart="125.0">
        <route edges="v12 -h12 -v22 h22"/>
    </vehicle>
    <vehicle id="11" depart="128.0">
        <route edges="-v12 -h22"/>
    </vehicle>
    <vehicle id="12" depart="132.0">
        <route edges="v23 h22 -v13"/>
    </vehicle>
    <vehicle id="13" depart="134.0">
        <route edges="-h12 -h13"/>
    </vehicle>
    <vehicle id="14" depart="150.0">
        <route edges="v13 -h22 v22 h12"/>
    </vehicle>
    <vehicle id="15" depart="155.0">
        <route edges="v12 -h12 -v22 h22"/>
    </vehicle>
    <vehicle id="16" depart="156.0">
        <route edges="h12 -v12 -h22 v22"/>
    </vehicle>
    <vehicle id="17" depart="157.0">
        <route edges="-v21 h12 h11"/>
    </vehicle>
    <vehicle id="18" depart="162.0">
        <route edges="v13 -h22 v22 h12"/>
    </vehicle>
    <vehicle id="19" depart="166.0">
        <route edges="v13 -h22 v22 h12"/>
    </vehicle>
    <vehicle id="20" depart="168.0">
        <route edges="h23 h22 v12 -h12"/>
    </vehicle>
    <vehicle id="21" depart="169.0">
        <route edges="-h22 v22 h12 -v12"/>
    </vehicle>
    <vehicle id="22" depart="172.0">
        <route edges="-h12 -v22 -h23"/>
    </vehicle>
    <vehicle id="24" depart="176.0">
        <route edges="h22 -v13"/>
    </vehicle>
    <vehicle id="25" depart="181.0">
        <route edges="-v12 -h22 -h23"/>
    </vehicle>
    <vehicle id="26" depart="181.0">
        <route edges="-v11 -h12 v21"/>
    </vehicle>
    <vehicle id="28" depart="186.0">
        <route edges="-h21 v12 -h12 -v22 h22"/>
    </vehicle>
    <vehicle id="29" depart="188.0">
        <route edges="-h21 v12 -h12 -v22"/>
    </vehicle>
    <vehicle id="30" depart="199.0">
        <route edges="v23 h22 h21"/>
    </vehicle>
    <vehicle id="31" depart="207.0">
        <route edges="h12 -v12 h21"/>
    </vehicle>
    <vehicle id="32" depart="209.0">
        <route edges="v13 v12 v11"/>
    </vehicle>
    <vehicle id="34" depart="212.0">
        <route edges="-v12"/>
    </vehicle>
    <vehicle id="35" depart="214.0">
        <route edges="-h22 v22"/>
    </vehicle>
    <vehicle id="36" depart="220.0">
        <route edges="v22 h12 -v12 -v13"/>
    </vehicle>
    <vehicle id="37" depart="221.0">
        <route edges="h22 v12 -h12 -v22"/>
    </vehicle>
    <vehicle id="38" depart="229.0">
        <route edges="v22 h12 -v12 -h22 -v23"/>
    </vehicle>
    <vehicle id="39" depart="230.0">
        <route edges="-v11 -h12 -v22 -h23"/>
    </vehicle>
    <vehicle id="40" depart="231.0">
        <route edges="h12 -v12"/>
    </vehicle>
    <vehicle id="41" depart="231.0">
        <route edges="h13 v21"/>
    </vehicle>
    <vehicle id="42" depart="233.0">
        <route edges="-v21 -v22 -h23"/>
    </vehicle>
    <vehicle id="43" depart="233.0">
        <route edges="v23 h22 v12 h11"/>
    </vehicle>
    <vehicle id="44" depart="238.0">
        <route edges="-h12"/>
    </vehicle>
    <vehicle id="45" depart="239.0">
        <route edges="-h12 -v22 h22 h21"/>
    </vehicle>
    <vehicle id="46" depart="240.0">
        <route edges="v12 -h12 -v22"/>
    </vehicle>
    <vehicle id="47" depart="244.0">
        <route edges="-h12 -v22"/>
    </vehicle>
    <vehicle id="48" depart="245.0">
        <route edges="v23 h22 v12 h11"/>
    </vehicle>
    <vehicle id="49" depart="245.0">
        <route edges="v23 h22 v12"/>
    </vehicle>
    <vehicle id="50" depart="247.0">
        <route edges="-h11 -h12 -v22 h22"/>
    </vehicle>
    <vehicle id="51" depart="247.0">
        <route edges="h22 v12 h11"/>
    </vehicle>
    <vehicle id="52" depart="250.0">
        <route edges="-v11 -v12 h21"/>
    </vehicle>
    <vehicle id="53" depart="250.0">
        <route edges="-h12 -v22"/>
    </vehicle>
    <vehicle id="55" depart="251.0">
        <route edges="v22 h12 -v12"/>
    </vehicle>
    <vehicle id="56" depart="255.0">
        <route edges="h12 -v12 -h22"/>
    </vehicle>
    <vehicle id="58" depart="255.0">
        <route edges="-v11 -v12 h21"/>
    </vehicle>
    <vehicle id="59" depart="256.0">
        <route edges="h13 h12 -v12 -h22"/>
    </vehicle>
    <vehicle id="60" depart="256.0">
        <route edges="v12 h11"/>
    </vehicle>
    <vehicle id="61" depart="258.0">
        <route edges="v12 h11"/>
    </vehicle>
    <vehicle id="62" depart="259.0">
        <route edges="-h11 -v12 -v13"/>
    </vehicle>
    <vehicle id="63" depart="261.0">
        <route edges="-h11 -h12 v21"/>
    </vehicle>
    <vehicle id="65" depart="264.0">
        <route edges="-v11 -h12"/>
    </vehicle>
    <vehicle id="66" depart="264.0">
        <route edges="v22"/>
    </vehicle>
    <vehicle id="67" depart="265.0">
        <route edges="-h12 -v22 -v23"/>
    </vehicle>
    <vehicle id="68" depart="269.0">
        <route edges="-h12 -v22 h22 v12 v11"/>
    </vehicle>
    <vehicle id="70" depart="271.0">
        <route edges="-v22 h22 v12 h11"/>
    </vehicle>
    <vehicle id="71" depart="281.0">
        <route edges="-v11 -h12 -v22 h22 v12"/>
    </vehicle>
    <vehicle id="72" depart="281.0">
        <route edges="-v21 -v22 -h23"/>
    </vehicle>
    <vehicle id="74" depart="281.0">
        <route edges="-h22 v22 h12 -v12"/>
    </vehicle>
    <vehicle id="75" depart="282.0">
        <route edges="v23 h22 h21"/>
    </vehicle>
    <vehicle id="76" depart="282.0">
        <route edges="-v22 h22 v12 h11"/>
    </vehicle>
    <vehicle id="77" depart="283.0">
        <route edges="-h12 -v22 -h23"/>
    </vehicle>
    <vehicle id="78" depart="285.0">
        <route edges="-v12 -h22 v22 h12"/>
    </vehicle>
    <vehicle id="79" depart="286.0">
        <route edges="-h22 -h23"/>
    </vehicle>
    <vehicle id="80" depart="294.0">
        <route edges="-h12 -v22 h22 h21"/>
    </vehicle>
    <vehicle id="81" depart="297.0">
        <route edges="-h22 v22 v21"/>
    </vehicle>
    <vehicle id="82" depart="297.0">
        <route edges="v13 -h22 v22 -h13"/>
    </vehicle>
    <vehicle id="83" depart="298.0">
        <route edges="-h22 v22 h12 -v12 h21"/>
    </vehicle>
    <vehicle id="84" depart="299.0">
        <route edges="-h22"/>
    </vehicle>
    <vehicle id="85" depart="302.0">
        <route edges="v22 h12"/>
    </vehicle>
    <vehicle id="86" depart="302.0">
        <route edges="-v22 h22 v12 v11"/>
    </vehicle>
    <vehicle id="87" depart="303.0">
        <route edges="v12 -h12 -v22 -h23"/>
    </vehicle>
    <vehicle id="88" depart="307.0">
        <route edges="-h12 -v22"/>
    </vehicle>
    <vehicle id="89" depart="313.0">
        <route edges="-v21 -v22 -v23"/>
    </vehicle>
    <vehicle id="90" depart="313.0">
        <route edges="h23 h22 h21"/>
    </vehicle>
    <vehicle id="91" depart="315.0">
        <route edges="v23 v22 -h13"/>
    </vehicle>
    <vehicle id="92" depart="315.0">
        <route edges="-v21 -v22 h22 -v13"/>
    </vehicle>
    <vehicle id="93" depart="319.0">
        <route edges="v13 -h22 -h23"/>
    </vehicle>
    <vehicle id="94" depart="321.0">
        <route edges="-h22 -v23"/>
    </vehicle>
    <vehicle id="95" depart="325.0">
        <route edges="-v21 h12 -v12"/>
    </vehicle>
    <vehicle id="96" depart="331.0">
        <route edges="-h22 v22 v21"/>
    </vehicle>
    <vehicle id="97" depart="333.0">
        <route edges="-v22 h22 v12"/>
    </vehicle>
    <vehicle id="99" depart="333.0">
        <route edges="v23 h22 v12"/>
    </vehicle>
    <vehicle id="100" depart="335.0">
        <route edges="v23 v22 v21"/>
    </vehicle>
    <vehicle id="101" depart="337.0">
        <route edges="v13 -h22"/>
    </vehicle>
    <vehicle id="102" depart="340.0">
        <route edges="-v22 -h23"/>
    </vehicle>
    <vehicle id="103" depart="340.0">
        <route edges="-v21 -v22 h22 v12 -h12"/>
    </vehicle>
    <vehicle id="104" depart="340.0">
        <route edges="-v21 h12 -v12 -h22 v22"/>
    </vehicle>
    <vehicle id="105" depart="341.0">
        <route edges="-v11 -h12 -v22 h22 v12 v11"/>
    </vehicle>
    <vehicle id="106" depart="342.0">
        <route edges="-v22"/>
    </vehicle>
    <vehicle id="107" depart="344.0">
        <route edges="v23 v22"/>
    </vehicle>
    <vehicle id="109" depart="345.0">
        <route edges="-h21 -h22 v22 h12 -v12"/>
    </vehicle>
    <vehicle id="110" depart="345.0">
        <route edges="v23 v22 h12"/>
    </vehicle>
    <vehicle id="112" depart="347.0">
        <route edges="-h11 -v12 -h22 v22 h12"/>
    </vehicle>
    <vehicle id="114" depart="349.0">
        <route edges="-h21 -h22 v22"/>
    </vehicle>
    <vehicle id="116" depart="362.0">
        <route edges="h13 -v22 h22 h21"/>
    </vehicle>
    <vehicle id="117" depart="362.0">
        <route edges="-h22 v22 -h13"/>
    </vehicle>
    <vehicle id="118" depart="363.0">
        <route edges="v22 h12 -v12 -h22 -h23"/>
    </vehicle>
    <vehicle id="119" depart="364.0">
        <route edges="h13 h12"/>
    </vehicle>
    <vehicle id="120" depart="364.0">
        <route edges="-v21 h12"/>
    </vehicle>
    <vehicle id="121" depart="364.0">
        <route edges="h12 -v12 -h22 v22 v21"/>
    </vehicle>
    <vehicle id="125" depart="366.0">
        <route edges="-v12 -h22 v22 h12 v11"/>
    </vehicle>
    <vehicle id="126" depart="368.0">
        <route edges="-h12 -v22 -v23"/>
    </vehicle>
    <vehicle id="127" depart="368.0">
        <route edges="v23 v22"/>
    </vehicle>
    <vehicle id="128" depart="370.0">
        <route edges="-h12 -v22 -h23"/>
    </vehicle>
    <vehicle id="129" depart="370.0">
        <route edges="-v11 -h12 v21"/>
    </vehicle>
    <vehicle id="130" depart="371.0">
        <route edges="v22 v21"/>
    </vehicle>
    <vehicle id="131" depart="374.0">
        <route edges="-v12 -h22"/>
    </vehicle>
    <vehicle id="132" depart="375.0">
        <route edges="v13 v12 -h12 -v22 h22"/>
    </vehicle>
    <vehicle id="133" depart="378.0">
        <route edges="h13 h12 -v12 -h22 v22"/>
    </vehicle>
    <vehicle id="134" depart="378.0">
        <route edges="h22 v12 -h12"/>
    </vehicle>
    <vehicle id="135" depart="382.0">
        <route edges="v13 -h22 v22 h12 -v12"/>
    </vehicle>
    <vehicle id="137" depart="383.0">
        <route edges="-h21 v12 -h12 -h13"/>
    </vehicle>
    <vehicle id="138" depart="387.0">
        <route edges="-h12 -v22 h22 v12 h11"/>
    </vehicle>
    <vehicle id="139" depart="387.0">
        <route edges="-v11 -v12 -h22 v22 h12"/>
    </vehicle>
    <vehicle id="140" depart="390.0">
        <route edges="h23 h22 v12 -h12 -v22 -h23"/>
    </vehicle>
    <vehicle id="142" depart="392.0">
        <route edges="-v22 h22 v12 -h12 v21"/>
    </vehicle>
    <vehicle id="143" depart="394.0">
        <route edges="v13 -h22 v22 -h13"/>
    </vehicle>
    <vehicle id="144" depart="396.0">
        <route edges="-v21 h12 -v12"/>
    </vehicle>
    <vehicle id="145" depart="398.0">
        <route edges="-h11 v11"/>
    </vehicle>
    <vehicle id="147" depart="398.0">
        <route edges="h23 h22 v12 h11"/>
    </vehicle>
    <vehicle id="148" depart="399.0">
        <route edges="-v21 -v22 h22 v12 -h12"/>
    </vehicle>
    <vehicle id="149" depart="400.0">
        <route edges="-h12 v21"/>
    </vehicle>
    <vehicle id="150" depart="400.0">
        <route edges="v22 h12 h11"/>
    </vehicle>
    <vehicle id="151" depart="403.0">
        <route edges="v13 -h22 v22 h12"/>
    </vehicle>
    <vehicle id="152" depart="405.0">
        <route edges="-h21 -h22"/>
    </vehicle>
    <vehicle id="153" depart="405.0">
        <route edges="-v11 -h12 v21"/>
    </vehicle>
    <vehicle id="154" depart="405.0">
        <route edges="v12"/>
    </vehicle>
    <vehicle id="155" depart="406.0">
        <route edges="v22 h12 -v12 -h22 -h23"/>
    </vehicle>
    <vehicle id="156" depart="407.0">
        <route edges="-h22 v22 -h13"/>
    </vehicle>
    <vehicle id="157" depart="409.0">
        <route edges="v12 -h12 v21"/>
    </vehicle>
    <vehicle id="158" depart="410.0">
        <route edges="-v21 h12"/>
    </vehicle>
    <vehicle id="159" depart="410.0">
        <route edges="-h21 v12 -h12 v21"/>
    </vehicle>
    <vehicle id="160" depart="410.0">
        <route edges="v13 -h22 v22"/>
    </vehicle>
    <vehicle id="161" depart="411.0">
        <route edges="v12 -h12 v21"/>
    </vehicle>
    <vehicle id="162" depart="412.0">
        <route edges="-h11 -h12 -v22 h22"/>
    </vehicle>
    <vehicle id="163" depart="413.0">
        <route edges="-v12 -h22 v22 v21"/>
    </vehicle>
    <vehicle id="164" depart="414.0">
        <route edges="v12"/>
    </vehicle>
    <vehicle id="166" depart="415.0">
        <route edges="v12 -h12 -h13"/>
    </vehicle>
    <vehicle id="167" depart="416.0">
        <route edges="v13 v12"/>
    </vehicle>
    <vehicle id="170" depart="416.0">
        <route edges="v12 -h12 -v22 -h23"/>
    </vehicle>
    <vehicle id="171" depart="416.0">
        <route edges="-h11 -h12 -v22 -h23"/>
    </vehicle>
    <vehicle id="173" depart="418.0">
        <route edges="v23 v22 h12 -v12"/>
    </vehicle>
    <vehicle id="174" depart="419.0">
        <route edges="h22 v12 -h12 -v22"/>
    </vehicle>
    <vehicle id="175" depart="422.0">
        <route edges="v23 h22 v12 h11"/>
    </vehicle>
    <vehicle id="176" depart="423.0">
        <route edges="v23 v22 -h13"/>
    </vehicle>
    <vehicle id="177" depart="423.0">
        <route edges="v23 v22 h12 -v12 -h22"/>
    </vehicle>
    <vehicle id="178" depart="427.0">
        <route edges="v23 v22 h12 -v12"/>
    </vehicle>
    <vehicle id="179" depart="427.0">
        <route edges="-h12 -v22"/>
    </vehicle>
    <vehicle id="180" depart="428.0">
        <route edges="h23 h22 -v13"/>
    </vehicle>
    <vehicle id="181" depart="429.0">
        <route edges="h13 h12 h11"/>
    </vehicle>
    <vehicle id="182" depart="430.0">
        <route edges="-v21 h12"/>
    </vehicle>
    <vehicle id="183" depart="434.0">
        <route edges="-v11 -h12 -v22 h22"/>
    </vehicle>
    <vehicle id="184" depart="435.0">
        <route edges="-h11 -h12 v21"/>
    </vehicle>
    <vehicle id="186" depart="435.0">
        <route edges="h23 h22 h21"/>
    </vehicle>
    <vehicle id="187" depart="436.0">
        <route edges="-v12 -h22 v22 -h13"/>
    </vehicle>
    <vehicle id="188" depart="439.0">
        <route edges="h22 -v13"/>
    </vehicle>
    <vehicle id="190" depart="441.0">
        <route edges="h23 v22 h12 -v12"/>
    </vehicle>
    <vehicle id="191" depart="442.0">
        <route edges="-v11 -h12 -v22"/>
    </vehicle>
    <vehicle id="192" depart="442.0">
        <route edges="-v21 h12 -v12"/>
    </vehicle>
    <vehicle id="193" depart="443.0">
        <route edges="-h21 v12 -h12 -v22"/>
    </vehicle>
    <vehicle id="194" depart="445.0">
        <route edges="v23 h22 h21"/>
    </vehicle>
    <vehicle id="195" depart="445.0">
        <route edges="v22 h12"/>
    </vehicle>
    <vehicle id="196" depart="453.0">
        <route edges="-v11 h11"/>
    </vehicle>
    <vehicle id="197" depart="453.0">
        <route edges="-h11 -v12"/>
    </vehicle>
    <vehicle id="198" depart="453.0">
        <route edges="-v21 h12"/>
    </vehicle>
    <vehicle id="199" depart="454.0">
        <route edges="h22 v12 -h12 -v22 -v23"/>
    </vehicle>
    <vehicle id="200" depart="454.0">
        <route edges="-v22 -h23"/>
    </vehicle>
    <vehicle id="201" depart="456.0">
        <route edges="-v22 h22 v12 -h12 v21"/>
    </vehicle>
    <vehicle id="203" depart="456.0">
        <route edges="-h12 -v22 h22 v12 h11"/>
    </vehicle>
    <vehicle id="204" depart="457.0">
        <route edges="h22 -v13"/>
    </vehicle>
    <vehicle id="205" depart="457.0">
        <route edges="v13 v12 v11"/>
    </vehicle>
    <vehicle id="206" depart="457.0">
        <route edges="h22 v12 -h12 -v22 -h23"/>
    </vehicle>
    <vehicle id="208" depart="458.0">
        <route edges="-h22 -v23"/>
    </vehicle>
    <vehicle id="209" depart="458.0">
        <route edges="v13 -h22 v22 -h13"/>
    </vehicle>
    <vehicle id="210" depart="460.0">
        <route edges="-v21 h12 -v12 h21"/>
    </vehicle>
    <vehicle id="212" depart="462.0">
        <route edges="-v22 -h23"/>
    </vehicle>
    <vehicle id="213" depart="464.0">
        <route edges="h22 v12 -h12"/>
    </vehicle>
    <vehicle id="214" depart="464.0">
        <route edges="v12 v11"/>
    </vehicle>
    <vehicle id="215" depart="465.0">
        <route edges="-h12 -v22"/>
    </vehicle>
    <vehicle id="216" depart="469.0">
        <route edges="-h21 -h22 v22"/>
    </vehicle>
    <vehicle id="219" depart="469.0">
        <route edges="-v22 h22 v12 v11"/>
    </vehicle>
    <vehicle id="221" depart="472.0">
        <route edges="h13 h12 -v12 -h22 v22"/>
    </vehicle>
    <vehicle id="222" depart="478.0">
        <route edges="v22 h12"/>
    </vehicle>
    <vehicle id="223" depart="478.0">
        <route edges="h23 h22 v12 h11"/>
    </vehicle>
    <vehicle id="224" depart="480.0">
        <route edges="v13 v12 h11"/>
    </vehicle>
    <vehicle id="227" depart="480.0">
        <route edges="-h22 v22 h12 -v12 h21"/>
    </vehicle>
    <vehicle id="228" depart="482.0">
        <route edges="v12 h11"/>
    </vehicle>
    <vehicle id="231" depart="484.0">
        <route edges="-v11 -v12 -v13"/>
    </vehicle>
    <vehicle id="232" depart="485.0">
        <route edges="h12 -v12 -h22"/>
    </vehicle>
    <vehicle id="234" depart="485.0">
        <route edges="h23 v22 -h13"/>
    </vehicle>
    <vehicle id="235" depart="485.0">
        <route edges="-v21 h12 h11"/>
    </vehicle>
    <vehicle id="236" depart="486.0">
        <route edges="-v21 -v22 -h23"/>
    </vehicle>
    <vehicle id="237" depart="486.0">
        <route edges="-v21 -v22 h22 v12 -h12 v21"/>
    </vehicle>
    <vehicle id="238" depart="489.0">
        <route edges="h13 -v22 h22"/>
    </vehicle>
    <vehicle id="239" depart="491.0">
        <route edges="v13 v12 v11"/>
    </vehicle>
    <vehicle id="240" depart="492.0">
        <route edges="-v21 -v22 h22 v12 -h12"/>
    </vehicle>
    <vehicle id="241" depart="505.0">
        <route edges="-v12 -h22 v22 h12 v11"/>
    </vehicle>
    <vehicle id="242" depart="505.0">
        <route edges="v13 -h22 v22"/>
    </vehicle>
    <vehicle id="243" depart="507.0">
        <route edges="-v21 -v22 h22"/>
    </vehicle>
    <vehicle id="244" depart="508.0">
        <route edges="h12"/>
    </vehicle>
    <vehicle id="245" depart="508.0">
        <route edges="-h22 -h23"/>
    </vehicle>
    <vehicle id="246" depart="509.0">
        <route edges="-v21 -v22 h22 v12 -h12"/>
    </vehicle>
    <vehicle id="247" depart="511.0">
        <route edges="-v12 h21"/>
    </vehicle>
    <vehicle id="248" depart="512.0">
        <route edges="-v21 h12 -v12 -h22"/>
    </vehicle>
    <vehicle id="250" depart="514.0">
        <route edges="h13 -v22 h22 v12 -h12"/>
    </vehicle>
    <vehicle id="251" depart="514.0">
        <route edges="-v21 h12"/>
    </vehicle>
    <vehicle id="252" depart="516.0">
        <route edges="-h11 -v12 h21"/>
    </vehicle>
    <vehicle id="253" depart="520.0">
        <route edges="-h21 -h22 -v23"/>
    </vehicle>
    <vehicle id="254" depart="521.0">
        <route edges="-h11 -h12 -v22"/>
    </vehicle>
    <vehicle id="255" depart="522.0">
        <route edges="-h22 v22 h12 -v12 -v13"/>
    </vehicle>
    <vehicle id="256" depart="522.0">
        <route edges="v12 -h12 -v22"/>
    </vehicle>
    <vehicle id="257" depart="522.0">
        <route edges="v12"/>
    </vehicle>
    <vehicle id="258" depart="523.0">
        <route edges="-v11 -h12 -h13"/>
    </vehicle>
    <vehicle id="259" depart="523.0">
        <route edges="-h11 -h12 -v22 h22 v12 h11"/>
    </vehicle>
    <vehicle id="260" depart="523.0">
        <route edges="v23 h22 -v13"/>
    </vehicle>
    <vehicle id="261" depart="524.0">
        <route edges="h22 v12 v11"/>
    </vehicle>
    <vehicle id="262" depart="524.0">
        <route edges="h22 v12 v11"/>
    </vehicle>
    <vehicle id="263" depart="524.0">
        <route edges="v23 -h23"/>
    </vehicle>
    <vehicle id="264" depart="528.0">
        <route edges="-h11 -v12 -h22"/>
    </vehicle>
    <vehicle id="265" depart="529.0">
        <route edges="-h21 v12 -h12 -v22 h22 h21"/>
    </vehicle>
    <vehicle id="266" depart="530.0">
        <route edges="h13 -v22 -h23"/>
    </vehicle>
    <vehicle id="267" depart="530.0">
        <route edges="h23 v22 h12 v11"/>
    </vehicle>
    <vehicle id="268" depart="530.0">
        <route edges="-h21 -h22 v22 h12"/>
    </vehicle>
    <vehicle id="269" depart="531.0">
        <route edges="h23 v22 -h13"/>
    </vehicle>
    <vehicle id="270" depart="531.0">
        <route edges="v13 -h22 v22"/>
    </vehicle>
    <vehicle id="271" depart="531.0">
        <route edges="-h12"/>
    </vehicle>
    <vehicle id="272" depart="532.0">
        <route edges="-v11 -v12 h21"/>
    </vehicle>
    <vehicle id="273" depart="533.0">
        <route edges="v23 h22 v12 -h12 -v22"/>
    </vehicle>
    <vehicle id="274" depart="537.0">
        <route edges="h23 v22 -h13"/>
    </vehicle>
    <vehicle id="275" depart="537.0">
        <route edges="h23 h22 h21"/>
    </vehicle>
    <vehicle id="276" depart="538.0">
        <route edges="-h12 -v22 h22 v12 v11"/>
    </vehicle>
    <vehicle id="277" depart="539.0">
        <route edges="v13 -h22 v22 h12"/>
    </vehicle>
    <vehicle id="279" depart="541.0">
        <route edges="v12 -h12 -v22 h22 -v13"/>
    </vehicle>
    <vehicle id="280" depart="542.0">
        <route edges="-v21 -v22 h22 -v13"/>
    </vehicle>
    <vehicle id="281" depart="542.0">
        <route edges="h12 -v12 -v13"/>
    </vehicle>
    <vehicle id="282" depart="543.0">
        <route edges="v13 v12"/>
    </vehicle>
    <vehicle id="284" depart="544.0">
        <route edges="h22 v12"/>
    </vehicle>
    <vehicle id="285" depart="544.0">
        <route edges="h23 h22 v12 -h12 -v22"/>
    </vehicle>
    <vehicle id="286" depart="546.0">
        <route edges="h23 v22"/>
    </vehicle>
    <vehicle id="287" depart="546.0">
        <route edges="-v11 -h12 -v22 h22 v12 v11"/>
    </vehicle>
    <vehicle id="288" depart="548.0">
        <route edges="h12 -v12 -h22 -v23"/>
    </vehicle>
    <vehicle id="289" depart="550.0">
        <route edges="-v21 -v22 h22"/>
    </vehicle>
    <vehicle id="290" depart="551.0">
        <route edges="-v11 -h12 -v22 h22 v12"/>
    </vehicle>
    <vehicle id="291" depart="555.0">
        <route edges="v13 -h22 v22 -h13"/>
    </vehicle>
    <vehicle id="292" depart="557.0">
        <route edges="v22 h12 -v12 -h22 -h23"/>
    </vehicle>
    <vehicle id="294" depart="557.0">
        <route edges="-v21 -v22 h22 v12 -h12"/>
    </vehicle>
    <vehicle id="295" depart="559.0">
        <route edges="v13 -h22"/>
    </vehicle>
    <vehicle id="296" depart="560.0">
        <route edges="-h22 v22 h12 v11"/>
    </vehicle>
    <vehicle id="297" depart="560.0">
        <route edges="-v12 -h22 v22 v21"/>
    </vehicle>
    <vehicle id="298" depart="561.0">
        <route edges="h23 v22 h12 -v12"/>
    </vehicle>
    <vehicle id="299" depart="566.0">
        <route edges="-h11 -v12 -h22 v22"/>
    </vehicle>
    <vehicle id="300" depart="567.0">
        <route edges="-h12 -v22 h22"/>
    </vehicle>
    <vehicle id="301" depart="567.0">
        <route edges="-v22 h22 v12 v11"/>
    </vehicle>
    <vehicle id="302" depart="568.0">
        <route edges="h23 h22 h21"/>
    </vehicle>
    <vehicle id="303" depart="569.0">
        <route edges="-v22 h22 v12 v11"/>
    </vehicle>
    <vehicle id="304" depart="569.0">
        <route edges="-h12 -v22 -h23"/>
    </vehicle>
    <vehicle id="305" depart="574.0">
        <route edges="h23 v22 h12 -v12"/>
    </vehicle>
    <vehicle id="306" depart="574.0">
        <route edges="h13 -v22 -v23"/>
    </vehicle>
    <vehicle id="308" depart="575.0">
        <route edges="h23 h22 -v13"/>
    </vehicle>
    <vehicle id="309" depart="578.0">
        <route edges="h23 v22 h12 -v12"/>
    </vehicle>
    <vehicle id="310" depart="580.0">
        <route edges="-v11 -h12 -h13"/>
    </vehicle>
    <vehicle id="311" depart="583.0">
        <route edges="-h22 v22 -h13"/>
    </vehicle>
    <vehicle id="312" depart="584.0">
        <route edges="h12 v11"/>
    </vehicle>
    <vehicle id="313" depart="584.0">
        <route edges="-h21 -h22 -h23"/>
    </vehicle>
    <vehicle id="314" depart="585.0">
        <route edges="-v22 h22"/>
    </vehicle>
    <vehicle id="315" depart="586.0">
        <route edges="v23 h22 v12 h11"/>
    </vehicle>
    <vehicle id="316" depart="586.0">
        <route edges="-v11 -h12 -h13"/>
    </vehicle>
    <vehicle id="317" depart="589.0">
        <route edges="-h22 -h23"/>
    </vehicle>
    <vehicle id="318" depart="589.0">
        <route edges="-h21 v12 -h12"/>
    </vehicle>
    <vehicle id="319" depart="590.0">
        <route edges="h12 -v12"/>
    </vehicle>
    <vehicle id="320" depart="591.0">
        <route edges="v23 h22 v12 h11"/>
    </vehicle>
    <vehicle id="321" depart="592.0">
        <route edges="h23 v22 h12 -v12 -h22"/>
    </vehicle>
    <vehicle id="322" depart="592.0">
        <route edges="v13 -h22 -v23"/>
    </vehicle>
    <vehicle id="323" depart="592.0">
        <route edges="v13 -h22 v22 h12"/>
    </vehicle>
    <vehicle id="324" depart="592.0">
        <route edges="-v22 -v23"/>
    </vehicle>
    <vehicle id="325" depart="594.0">
        <route edges="-h21 v12 -h12"/>
    </vehicle>
    <vehicle id="326" depart="594.0">
        <route edges="v23 h22 v12 -h12 -v22 -v23"/>
    </vehicle>
    <vehicle id="327" depart="595.0">
        <route edges="v13 v12 -h12 -v22"/>
    </vehicle>
    <vehicle id="328" depart="596.0">
        <route edges="-h12 -v22 h22 h21"/>
    </vehicle>
    <vehicle id="329" depart="598.0">
        <route edges="-h11 -v12 -h22"/>
    </vehicle>
    <vehicle id="330" depart="599.0">
        <route edges="h13 h12 -v12"/>
    </vehicle>
    <vehicle id="331" depart="599.0">
        <route edges="v23 v22 -h13"/>
    </vehicle>
    <vehicle id="333" depart="599.0">
        <route edges="v12 -h12 -v22 -h23"/>
    </vehicle>
    <vehicle id="334" depart="600.0">
        <route edges="h12 -v12 -h22 -v23"/>
    </vehicle>
    <vehicle id="335" depart="600.0">
        <route edges="-v22 h22 v12"/>
    </vehicle>
    <vehicle id="336" depart="600.0">
        <route edges="v23 v22 h12 -v12"/>
    </vehicle>
    <vehicle id="337" depart="601.0">
        <route edges="h13 h12"/>
    </vehicle>
    <vehicle id="338" depart="601.0">
        <route edges="h23 v22"/>
    </vehicle>
    <vehicle id="339" depart="601.0">
        <route edges="-h22 -h23"/>
    </vehicle>
    <vehicle id="341" depart="601.0">
        <route edges="-h21 v12 -h12 -h13"/>
    </vehicle>
    <vehicle id="342" depart="603.0">
        <route edges="-h11 -v12 -h22 -v23"/>
    </vehicle>
    <vehicle id="343" depart="605.0">
        <route edges="h13 h12 -v12"/>
    </vehicle>
    <vehicle id="345" depart="607.0">
        <route edges="h23 -v23"/>
    </vehicle>
    <vehicle id="346" depart="607.0">
        <route edges="h22 v12 -h12 v21"/>
    </vehicle>
    <vehicle id="347" depart="607.0">
        <route edges="v12 -h12 -v22 h22 h21"/>
    </vehicle>
    <vehicle id="348" depart="608.0">
        <route edges="h22 v12 -h12 v21"/>
    </vehicle>
    <vehicle id="349" depart="609.0">
        <route edges="-v21 h12 h11"/>
    </vehicle>
    <vehicle id="350" depart="611.0">
        <route edges="h22 v12 -h12 v21"/>
    </vehicle>
    <vehicle id="351" depart="611.0">
        <route edges="v13 -h22 v22 -h13"/>
    </vehicle>
    <vehicle id="352" depart="612.0">
        <route edges="-h21 -h22 v22 h12 -v12"/>
    </vehicle>
    <vehicle id="353" depart="612.0">
        <route edges="h23 v22 h12"/>
    </vehicle>