<?xml version="1.0" encoding="UTF-8"?>

<!-- generated on 2023-06-30 22:46:55.159006 by randomTrips.py v1_17_0+0000-737931d58da
<configuration>
    <net-file value="network/3x3.net.xml"/>
    <route-file value="network/routes.rou.xml"/>
    <end value="2000.0"/>
    <validate value="True"/>
</configuration>
-->

<!-- generated on 2023-06-30 22:46:55 by Eclipse SUMO duarouter Version 1.17.0
<configuration xmlns:xsi="http://www.w3.org/2001/XMLSchema-instance" xsi:noNamespaceSchemaLocation="http://sumo.dlr.de/xsd/duarouterConfiguration.xsd">

    <input>
        <net-file value="network/3x3.net.xml"/>
        <route-files value="trips.trips.xml"/>
    </input>

    <output>
        <output-file value="network/routes.rou.xml"/>
        <alternatives-output value="NUL"/>
    </output>

    <time>
        <begin value="0"/>
        <end value="2000.0"/>
    </time>

    <report>
        <no-warnings value="true"/>
        <ignore-errors value="true"/>
        <no-step-log value="true"/>
    </report>

</configuration>
-->

<routes xmlns:xsi="http://www.w3.org/2001/XMLSchema-instance" xsi:noNamespaceSchemaLocation="http://sumo.dlr.de/xsd/routes_file.xsd">
    <vehicle id="0" depart="37.0">
        <route edges="5Wi 2Si 1Ei 0Ei"/>
    </vehicle>
    <vehicle id="1" depart="75.0">
        <route edges="2Ni 2Eo"/>
    </vehicle>
    <vehicle id="2" depart="79.0">
        <route edges="6Si 3Si 4Wi 7Ni 6Ei"/>
    </vehicle>
    <vehicle id="3" depart="87.0">
        <route edges="8Ei 5Si 2Si 1Ei 0Ei 0Wo"/>
    </vehicle>
    <vehicle id="4" depart="89.0">
        <route edges="3Wi 0Si 0No"/>
    </vehicle>
    <vehicle id="5" depart="113.0">
        <route edges="1Wi 2Wi 5Ni 8Ni 7Ei 4Si"/>
    </vehicle>
    <vehicle id="6" depart="117.0">
        <route edges="0Ei 3Ni 4Wi 7Ni 6Ei 3Si 0Si 1Wi"/>
    </vehicle>
    <vehicle id="7" depart="122.0">
        <route edges="5Wi 8Ni 7Ei 6Ei 3Si 4Wi"/>
    </vehicle>
    <vehicle id="8" depart="122.0">
        <route edges="1Wi 2Wi 5Ni"/>
    </vehicle>
    <vehicle id="9" depart="125.0">
        <route edges="7Ni 6Ei 3Si 4Wi 1Si 0Ei"/>
    </vehicle>
    <vehicle id="10" depart="127.0">
        <route edges="7Ni 8Wi 5Si 4Ei 3Ei 6Ni"/>
    </vehicle>
    <vehicle id="11" depart="133.0">
        <route edges="3Ei 0Si 1Wi 1No"/>
    </vehicle>
    <vehicle id="12" depart="141.0">
        <route edges="8Si 5Si 4Ei 3Ei"/>
    </vehicle>
    <vehicle id="13" depart="152.0">
        <route edges="0Wi 1Wi 4Ni 3Ei 0Si 0Wo"/>
    </vehicle>
    <vehicle id="14" depart="152.0">
        <route edges="7Si 4Si 1Si 2Wi 5Ni"/>
    </vehicle>
    <vehicle id="15" depart="154.0">
        <route edges="7Ni 6Ei 6So"/>
    </vehicle>
    <vehicle id="16" depart="176.0">
        <route edges="4Wi 7Ni 8Wi"/>
    </vehicle>
    <vehicle id="17" depart="177.0">
        <route edges="3Ni 4Wi"/>
    </vehicle>
    <vehicle id="18" depart="178.0">
        <route edges="7Ni 8Wi 5Si"/>
    </vehicle>
    <vehicle id="19" depart="179.0">
        <route edges="7Wi 4Si 5Wi 5Eo"/>
    </vehicle>
    <vehicle id="20" depart="199.0">
        <route edges="6Ni 7Wi 4Si 3Ei 0Si 0No"/>
    </vehicle>
    <vehicle id="21" depart="201.0">
        <route edges="2Ei 1Ei 4Ni 5Wi 2Si"/>
    </vehicle>
    <vehicle id="22" depart="210.0">
        <route edges="0Si 1Wi 2Wi 2Eo"/>
    </vehicle>
    <vehicle id="23" depart="217.0">
        <route edges="0Wi 1Wi 4Ni 5Wi 2Si"/>
    </vehicle>
    <vehicle id="24" depart="217.0">
        <route edges="5Si 2Si 1Ei 0Ei 3Ni"/>
    </vehicle>
    <vehicle id="25" depart="220.0">
        <route edges="3Ni 4Wi 7Ni 6Ei 3Si 0Si 1Wi"/>
    </vehicle>
    <vehicle id="26" depart="222.0">
        <route edges="2Ni 5Ni 8Ni"/>
    </vehicle>
    <vehicle id="27" depart="223.0">
        <route edges="5Wi 8Ni 7Ei 4Si 1Si 2Wi 5Ni"/>
    </vehicle>
    <vehicle id="28" depart="224.0">
        <route edges="1Si 0Ei 3Ni 6Ni 6So"/>
    </vehicle>
    <vehicle id="29" depart="229.0">
        <route edges="1Ni 0Ei 3Ni"/>
    </vehicle>
    <vehicle id="30" depart="231.0">
        <route edges="8Wi 5Si 2Si 1Ei 4Ni 5Wi"/>
    </vehicle>
    <vehicle id="31" depart="233.0">
        <route edges="5Ei 8Ni 7Ei 6Ei"/>
    </vehicle>
    <vehicle id="32" depart="234.0">
        <route edges="7Si 6Ei 6Wo"/>
    </vehicle>
    <vehicle id="33" depart="236.0">
        <route edges="2Ei 1Ei 0Ei 0No"/>
    </vehicle>
    <vehicle id="34" depart="236.0">
        <route edges="2Wi 2No"/>
    </vehicle>
    <vehicle id="35" depart="239.0">
        <route edges="1Wi 2Wi 5Ni 8Ni"/>
    </vehicle>
    <vehicle id="36" depart="239.0">
        <route edges="7Wi 4Si 1Si 2Wi"/>
    </vehicle>
    <vehicle id="37" depart="248.0">
        <route edges="5Wi 8Ni 7Ei 6Ei 3Si"/>
    </vehicle>
    <vehicle id="38" depart="250.0">
        <route edges="8Ei 5Si 4Ei"/>
    </vehicle>
    <vehicle id="39" depart="253.0">
        <route edges="2Ni 2Eo"/>
    </vehicle>
    <vehicle id="40" depart="253.0">
        <route edges="5Ei 2Si 2No"/>
    </vehicle>
    <vehicle id="41" depart="256.0">
        <route edges="5Ni 8Ni 8Eo"/>
    </vehicle>
    <vehicle id="42" depart="263.0">
        <route edges="3Si 0Si 1Wi"/>
    </vehicle>
    <vehicle id="43" depart="267.0">
        <route edges="8Wi 5Si 4Ei 3Ei 6Ni 7Wi 4Si"/>
    </vehicle>
    <vehicle id="44" depart="269.0">
        <route edges="0Wi 0No"/>
    </vehicle>
    <vehicle id="45" depart="272.0">
        <route edges="0Wi 3Ni 6Ni 7Wi 8Wi 5Si"/>
    </vehicle>
    <vehicle id="46" depart="272.0">
        <route edges="7Ei 6Ei 3Si 3Wo"/>
    </vehicle>
    <vehicle id="47" depart="273.0">
        <route edges="0Si 1Wi 2Wi 5Ni 4Ei 1Si 0Ei 3Ni"/>
    </vehicle>
    <vehicle id="48" depart="274.0">
        <route edges="8Wi 5Si 4Ei 7Ni 6Ei 3Si 4Wi"/>
    </vehicle>
    <vehicle id="49" depart="275.0">
        <route edges="8Si 7Ei 7So"/>
    </vehicle>
    <vehicle id="50" depart="277.0">
        <route edges="0Ei 3Ni 6Ni"/>
    </vehicle>
    <vehicle id="51" depart="278.0">
        <route edges="6Ei 3Si 4Wi"/>
    </vehicle>
    <vehicle id="52" depart="279.0">
        <route edges="2Ni 1Ei 4Ni 5Wi"/>
    </vehicle>
    <vehicle id="53" depart="281.0">
        <route edges="1Ei 4Ni 3Ei 3Wo"/>
    </vehicle>
    <vehicle id="54" depart="282.0">
        <route edges="4Ei 7Ni 8Wi 8So"/>
    </vehicle>
    <vehicle id="55" depart="289.0">
        <route edges="7Wi 8Wi 5Si 2Si 2No"/>
    </vehicle>
    <vehicle id="56" depart="290.0">
        <route edges="4Si 1Si"/>
    </vehicle>
    <vehicle id="57" depart="290.0">
        <route edges="8Ei 7Ei 4Si 3Ei 6Ni 7Wi"/>
    </vehicle>
    <vehicle id="58" depart="291.0">
        <route edges="2Si 1Ei 4Ni 5Wi"/>
    </vehicle>
    <vehicle id="59" depart="292.0">
        <route edges="5Ni 4Ei 1Si 1No"/>
    </vehicle>
    <vehicle id="60" depart="298.0">
        <route edges="6Wi 3Si 4Wi"/>
    </vehicle>
    <vehicle id="61" depart="301.0">
        <route edges="7Ei 6Ei 3Si 4Wi"/>
    </vehicle>
    <vehicle id="62" depart="301.0">
        <route edges="0Ei 3Ni 4Wi 1Si 2Wi"/>
    </vehicle>
    <vehicle id="63" depart="302.0">
        <route edges="0Ei 3Ni 4Wi 5Wi 8Ni"/>
    </vehicle>
    <vehicle id="64" depart="302.0">
        <route edges="7Wi 8Wi 5Si 4Ei 7Ni"/>
    </vehicle>
    <vehicle id="65" depart="303.0">
        <route edges="2Wi 5Ni 4Ei 3Ei 0Si"/>
    </vehicle>
    <vehicle id="66" depart="304.0">
        <route edges="7Wi 8Wi 8So"/>
    </vehicle>
    <vehicle id="67" depart="306.0">
        <route edges="0Wi 1Wi 4Ni"/>
    </vehicle>
    <vehicle id="68" depart="308.0">
        <route edges="0Si 1Wi 4Ni 7Ni 6Ei 6Wo"/>
    </vehicle>
    <vehicle id="69" depart="311.0">
        <route edges="6Wi 7Wi 8Wi 5Si 2Si 1Ei"/>
    </vehicle>
    <vehicle id="70" depart="312.0">
        <route edges="4Ni 7Ni 6Ei 3Si 4Wi"/>
    </vehicle>
    <vehicle id="71" depart="320.0">
        <route edges="2Ni 1Ei 0Ei 3Ni 6Ni 7Wi"/>
    </vehicle>
    <vehicle id="72" depart="322.0">
        <route edges="3Wi 0Si 1Wi"/>
    </vehicle>
    <vehicle id="73" depart="322.0">
        <route edges="4Wi 7Ni 6Ei 6So"/>
    </vehicle>
    <vehicle id="74" depart="323.0">
        <route edges="1Wi 2Wi"/>
    </vehicle>
    <vehicle id="75" depart="324.0">
        <route edges="8Wi 5Si 2Si 1Ei 4Ni 5Wi"/>
    </vehicle>
    <vehicle id="76" depart="326.0">
        <route edges="3Wi 6Ni 7Wi 4Si"/>
    </vehicle>
    <vehicle id="77" depart="327.0">
        <route edges="1Ei 4Ni 5Wi 2Si 2Eo"/>
    </vehicle>
    <vehicle id="78" depart="329.0">
        <route edges="3Ei 0Si 1Wi 2Wi 5Ni"/>
    </vehicle>
    <vehicle id="79" depart="329.0">
        <route edges="2Ei 5Ni 4Ei 3Ei 0Si 1Wi"/>
    </vehicle>
    <vehicle id="80" depart="331.0">
        <route edges="0Si 1Wi 4Ni 7Ni 8Wi 5Si"/>
    </vehicle>
    <vehicle id="81" depart="336.0">
        <route edges="2Ei 5Ni 8Ni 8Eo"/>
    </vehicle>
    <vehicle id="82" depart="337.0">
        <route edges="7Si 6Ei 3Si 0Si"/>
    </vehicle>
    <vehicle id="83" depart="338.0">
        <route edges="2Ei 5Ni 8Ni 7Ei 6Ei"/>
    </vehicle>
    <vehicle id="84" depart="341.0">
        <route edges="1Wi 4Ni 5Wi 2Si 1Ei"/>
    </vehicle>
    <vehicle id="85" depart="342.0">
        <route edges="8Ni 7Ei 4Si 5Wi 5Eo"/>
    </vehicle>
    <vehicle id="86" depart="345.0">
        <route edges="4Ni 5Wi 8Ni 7Ei"/>
    </vehicle>
    <vehicle id="87" depart="349.0">
        <route edges="7Ni 6Ei 3Si 4Wi 1Si"/>
    </vehicle>
    <vehicle id="88" depart="350.0">
        <route edges="0Wi 3Ni 3Wo"/>
    </vehicle>
    <vehicle id="89" depart="352.0">
        <route edges="3Wi 0Si 1Wi 2Wi 5Ni 4Ei"/>
    </vehicle>
    <vehicle id="90" depart="352.0">
        <route edges="6Si 3Si 4Wi 7Ni 6Ei"/>
    </vehicle>
    <vehicle id="91" depart="353.0">
        <route edges="8Wi 5Si 2Si 1Ei 0Ei 0Wo"/>
    </vehicle>
    <vehicle id="92" depart="353.0">
        <route edges="3Si 0Si 1Wi 4Ni 3Ei"/>
    </vehicle>
    <vehicle id="93" depart="356.0">
        <route edges="7Wi 4Si 1Si 2Wi 2Eo"/>
    </vehicle>
    <vehicle id="94" depart="357.0">
        <route edges="1Si 2Wi 5Ni 4Ei"/>
    </vehicle>
    <vehicle id="95" depart="357.0">
        <route edges="3Wi 4Wi 5Wi 2Si"/>
    </vehicle>
    <vehicle id="96" depart="358.0">
        <route edges="2Ei 5Ni 8Ni"/>
    </vehicle>
    <vehicle id="97" depart="359.0">
        <route edges="3Wi 6Ni 7Wi"/>
    </vehicle>
    <vehicle id="98" depart="362.0">
        <route edges="4Wi 1Si 0Ei 0No"/>
    </vehicle>
    <vehicle id="99" depart="363.0">
        <route edges="8Wi 5Si 4Ei 7Ni 7So"/>
    </vehicle>
    <vehicle id="100" depart="365.0">
        <route edges="8Si 7Ei 4Si 5Wi 8Ni"/>
    </vehicle>
    <vehicle id="101" depart="370.0">
        <route edges="7Si 4Si 1Si 1No"/>
    </vehicle>
    <vehicle id="102" depart="375.0">
        <route edges="4Ni 3Ei 0Si 1Wi"/>
    </vehicle>
    <vehicle id="103" depart="376.0">
        <route edges="3Si 0Si"/>
    </vehicle>
    <vehicle id="104" depart="377.0">
        <route edges="3Ni 6Ni 7Wi 8Wi"/>
    </vehicle>
    <vehicle id="105" depart="377.0">
        <route edges="2Ni 5Ni 8Ni 7Ei"/>
    </vehicle>
    <vehicle id="106" depart="380.0">
        <route edges="4Ei 3Ei 3Wo"/>
    </vehicle>
    <vehicle id="107" depart="388.0">
        <route edges="8Si 5Si 4Ei 7Ni 8Wi"/>
    </vehicle>
    <vehicle id="108" depart="389.0">
        <route edges="5Ei 4Ei 3Ei 6Ni"/>
    </vehicle>
    <vehicle id="109" depart="392.0">
        <route edges="1Ni 4Ni 5Wi 2Si"/>
    </vehicle>
    <vehicle id="110" depart="396.0">
        <route edges="8Si 5Si 5Eo"/>
    </vehicle>
    <vehicle id="111" depart="399.0">
        <route edges="4Wi 7Ni 6Ei 6So"/>
    </vehicle>
    <vehicle id="112" depart="400.0">
        <route edges="0Si 1Wi 2Wi 5Ni"/>
    </vehicle>
    <vehicle id="113" depart="407.0">
        <route edges="4Si 5Wi 8Ni 7Ei 7So"/>
    </vehicle>
    <vehicle id="114" depart="410.0">
        <route edges="1Ni 2Wi 5Ni 8Ni 8So"/>
    </vehicle>
    <vehicle id="115" depart="410.0">
        <route edges="0Si 1Wi 2Wi 5Ni 4Ei 1Si"/>
    </vehicle>
    <vehicle id="116" depart="414.0">
        <route edges="5Ni 8Ni 7Ei 6Ei"/>
    </vehicle>
    <vehicle id="117" depart="415.0">
        <route edges="2Ei 1Ei"/>
    </vehicle>
    <vehicle id="118" depart="415.0">
        <route edges="8Ei 5Si 2Si 2Eo"/>
    </vehicle>
    <vehicle id="119" depart="416.0">
        <route edges="5Ni 4Ei 7Ni 8Wi 5Si"/>
    </vehicle>
    <vehicle id="120" depart="417.0">
        <route edges="3Wi 0Si 1Wi 2Wi 5Ni"/>
    </vehicle>
    <vehicle id="121" depart="419.0">
        <route edges="4Si 5Wi 8Ni"/>
    </vehicle>
    <vehicle id="122" depart="420.0">
        <route edges="1Wi 4Ni 3Ei 6Ni"/>
    </vehicle>
    <vehicle id="123" depart="421.0">
        <route edges="2Ei 5Ni 8Ni 7Ei 6Ei 3Si"/>
    </vehicle>
    <vehicle id="124" depart="421.0">
        <route edges="6Ei 3Si 4Wi 5Wi 2Si"/>
    </vehicle>
    <vehicle id="125" depart="421.0">
        <route edges="2Wi 5Ni 8Ni 7Ei 6Ei 6Wo"/>
    </vehicle>
    <vehicle id="126" depart="423.0">
        <route edges="0Si 1Wi 2Wi 5Ni 4Ei"/>
    </vehicle>
    <vehicle id="127" depart="425.0">
        <route edges="8Wi"/>
    </vehicle>
    <vehicle id="128" depart="425.0">
        <route edges="0Si 1Wi"/>
    </vehicle>
    <vehicle id="129" depart="426.0">
        <route edges="2Ni 5Ni 8Ni"/>
    </vehicle>
    <vehicle id="130" depart="431.0">
        <route edges="7Wi"/>
    </vehicle>
    <vehicle id="131" depart="433.0">
        <route edges="3Ni 4Wi 1Si 1No"/>
    </vehicle>
    <vehicle id="132" depart="434.0">
        <route edges="7Si 4Si 3Ei 6Ni"/>
    </vehicle>
    <vehicle id="133" depart="443.0">
        <route edges="5Si 4Ei 7Ni 8Wi"/>
    </vehicle>
    <vehicle id="134" depart="444.0">
        <route edges="5Wi 2Si 1Ei 0Ei"/>
    </vehicle>
    <vehicle id="135" depart="444.0">
        <route edges="7Ni 8Wi 5Si 2Si"/>
    </vehicle>
    <vehicle id="136" depart="445.0">
        <route edges="5Wi 8Ni"/>
    </vehicle>
    <vehicle id="137" depart="445.0">
        <route edges="1Ei"/>
    </vehicle>
    <vehicle id="138" depart="446.0">
        <route edges="0Wi 3Ni 4Wi"/>
    </vehicle>
    <vehicle id="139" depart="447.0">
        <route edges="2Ni 5Ni"/>
    </vehicle>
    <vehicle id="140" depart="454.0">
        <route edges="6Ni 7Wi 4Si 3Ei 0Si 1Wi"/>
    </vehicle>
    <vehicle id="141" depart="455.0">
        <route edges="5Si 2Si 2No"/>
    </vehicle>
    <vehicle id="142" depart="461.0">
        <route edges="4Ni 7Ni 8Wi 8Eo"/>
    </vehicle>
    <vehicle id="143" depart="462.0">
        <route edges="7Si 4Si 1Si 0Ei 0Wo"/>
    </vehicle>
    <vehicle id="144" depart="463.0">
        <route edges="3Wi 4Wi 5Wi 2Si 2No"/>
    </vehicle>
    <vehicle id="145" depart="463.0">
        <route edges="0Ei 3Ni 6Ni 6Wo"/>
    </vehicle>
    <vehicle id="146" depart="464.0">
        <route edges="5Si 2Si 2No"/>
    </vehicle>
    <vehicle id="147" depart="467.0">
        <route edges="6Si 3Si 4Wi"/>
    </vehicle>
    <vehicle id="148" depart="469.0">
        <route edges="3Wi 4Wi 1Si 0Ei"/>
    </vehicle>
    <vehicle id="149" depart="472.0">
        <route edges="0Si 1Wi 4Ni 3Ei 6Ni 7Wi"/>
    </vehicle>
    <vehicle id="150" depart="483.0">
        <route edges="8Ei 7Ei 6Ei 3Si 4Wi"/>
    </vehicle>
    <vehicle id="151" depart="484.0">
        <route edges="7Si 4Si 5Wi 5Eo"/>
    </vehicle>
    <vehicle id="152" depart="487.0">
        <route edges="1Ni 4Ni 5Wi 2Si 1Ei"/>
    </vehicle>
    <vehicle id="153" depart="491.0">
        <route edges="2Wi 5Ni 8Ni 8Eo"/>
    </vehicle>
    <vehicle id="154" depart="493.0">
        <route edges="7Ei 7So"/>
    </vehicle>
    <vehicle id="155" depart="497.0">
        <route edges="8Ei 7Ei 6Ei 3Si 0Si 1Wi"/>
    </vehicle>
    <vehicle id="156" depart="498.0">
        <route edges="2Ei 1Ei 0Ei 0Wo"/>
    </vehicle>
    <vehicle id="157" depart="499.0">
        <route edges="7Ei 4Si 3Ei 6Ni 7Wi"/>
    </vehicle>
    <vehicle id="158" depart="503.0">
        <route edges="3Si 4Wi 7Ni 8Wi 5Si"/>
    </vehicle>
    <vehicle id="159" depart="504.0">
        <route edges="1Ni 2Wi 5Ni 8Ni"/>
    </vehicle>
    <vehicle id="160" depart="505.0">
        <route edges="7Wi 8Wi"/>
    </vehicle>
    <vehicle id="161" depart="507.0">
        <route edges="7Ni 8Wi 5Si 4Ei 3Ei 6Ni 7Wi"/>
    </vehicle>
    <vehicle id="162" depart="509.0">
        <route edges="0Ei 3Ni 6Ni 6So"/>
    </vehicle>
    <vehicle id="163" depart="511.0">
        <route edges="2Wi 5Ni 8Ni"/>
    </vehicle>
    <vehicle id="164" depart="513.0">
        <route edges="7Ei 4Si 3Ei 6Ni 7Wi"/>
    </vehicle>
    <vehicle id="165" depart="515.0">
        <route edges="7Ni 8Wi 5Si 2Si 2No"/>
    </vehicle>
    <vehicle id="166" depart="515.0">
        <route edges="7Ei 4Si 1Si 0Ei 0Wo"/>
    </vehicle>
    <vehicle id="167" depart="520.0">
        <route edges="7Wi 7So"/>
    </vehicle>
    <vehicle id="168" depart="520.0">
        <route edges="2Ei 1Ei 4Ni 7Ni"/>
    </vehicle>
    <vehicle id="169" depart="521.0">
        <route edges="4Ei 7Ni 8Wi 5Si 2Si"/>
    </vehicle>
    <vehicle id="170" depart="522.0">
        <route edges="7Ei 4Si 1Si 2Wi 2Eo"/>
    </vehicle>
    <vehicle id="171" depart="523.0">
        <route edges="0Ei 3Ni 4Wi 1Si"/>
    </vehicle>
    <vehicle id="172" depart="524.0">
        <route edges="2Wi 5Ni 4Ei 3Ei 6Ni 7Wi"/>
    </vehicle>
    <vehicle id="173" depart="528.0">
        <route edges="8Si 5Si 2Si"/>
    </vehicle>
    <vehicle id="174" depart="528.0">
        <route edges="5Wi 8Ni 7Ei 6Ei 3Si"/>
    </vehicle>
    <vehicle id="175" depart="528.0">
        <route edges="8Wi 5Si 4Ei 7Ni 6Ei 3Si 4Wi"/>
    </vehicle>
    <vehicle id="176" depart="528.0">
        <route edges="8Ni 7Ei 4Si 5Wi 2Si 1Ei"/>
    </vehicle>
    <vehicle id="177" depart="531.0">
        <route edges="8Si 7Ei 4Si 1Si"/>
    </vehicle>
    <vehicle id="178" depart="534.0">
        <route edges="8Si 5Si 2Si 2No"/>
    </vehicle>
    <vehicle id="179" depart="535.0">
        <route edges="0Wi 3Ni 3Wo"/>
    </vehicle>
    <vehicle id="180" depart="535.0">
        <route edges="6Si 3Si 0Si 1Wi 2Wi"/>
    </vehicle>
    <vehicle id="181" depart="539.0">
        <route edges="5Ni 8Ni 7Ei 4Si"/>
    </vehicle>
    <vehicle id="182" depart="540.0">
        <route edges="3Ni 4Wi 5Wi 5Eo"/>
    </vehicle>
    <vehicle id="183" depart="540.0">
        <route edges="2Ni 1Ei 0Ei 3Ni 6Ni"/>
    </vehicle>
    <vehicle id="184" depart="542.0">
        <route edges="0Ei 3Ni 4Wi 5Wi 8Ni"/>
    </vehicle>
    <vehicle id="185" depart="542.0">
        <route edges="4Wi 1Si 0Ei 3Ni 6Ni"/>
    </vehicle>
    <vehicle id="186" depart="543.0">
        <route edges="6Si 3Si 4Wi 7Ni 6Ei"/>
    </vehicle>
    <vehicle id="187" depart="543.0">
        <route edges="3Ni 4Wi 7Ni 6Ei 3Si 0Si"/>
    </vehicle>
    <vehicle id="188" depart="544.0">
        <route edges="5Wi 8Ni 7Ei 4Si 1Si 2Wi"/>
    </vehicle>
    <vehicle id="189" depart="547.0">
        <route edges="2Wi 5Ni 8Ni 7Ei 7So"/>
    </vehicle>
    <vehicle id="190" depart="547.0">
        <route edges="6Ni 7Wi 8Wi 5Si 2Si"/>
    </vehicle>
    <vehicle id="191" depart="548.0">
        <route edges="2Wi 5Ni 8Ni 7Ei 6Ei 3Si"/>
    </vehicle>
    <vehicle id="192" depart="548.0">
        <route edges="3Si 4Wi 5Wi 2Si"/>
    </vehicle>
    <vehicle id="193" depart="549.0">
        <route edges="1Ei 4Ni 3Ei 3Wo"/>
    </vehicle>
    <vehicle id="194" depart="552.0">
        <route edges="8Ni 7Ei 6Ei"/>
    </vehicle>
    <vehicle id="195" depart="552.0">
        <route edges="8Ei 5Si"/>
    </vehicle>
    <vehicle id="196" depart="553.0">
        <route edges="2Si 1Ei 0Ei 3Ni 4Wi"/>
    </vehicle>
    <vehicle id="197" depart="555.0">
        <route edges="0Ei 3Ni 4Wi 5Wi 2Si"/>
    </vehicle>
    <vehicle id="198" depart="555.0">
        <route edges="3Wi 4Wi 5Wi 5Eo"/>
    </vehicle>
    <vehicle id="199" depart="557.0">
        <route edges="5Wi 8Ni 7Ei 4Si 1Si 2Wi 5Ni 4Ei"/>
    </vehicle>
    <vehicle id="200" depart="557.0">
        <route edges="3Wi 0Si 1Wi"/>
    </vehicle>
    <vehicle id="201" depart="561.0">
        <route edges="4Ni 7Ni 8Wi 8Eo"/>
    </vehicle>
    <vehicle id="202" depart="561.0">
        <route edges="7Ei 4Si 1Si"/>
    </vehicle>
    <vehicle id="203" depart="563.0">
        <route edges="0Wi 3Ni 6Ni 7Wi 4Si"/>
    </vehicle>
    <vehicle id="204" depart="563.0">
        <route edges="5Si 4Ei 3Ei"/>
    </vehicle>
    <vehicle id="205" depart="565.0">
        <route edges="7Ni 6Ei 6Wo"/>
    </vehicle>
    <vehicle id="206" depart="573.0">
        <route edges="6Ei 3Si 0Si 1Wi 2Wi 2Eo"/>
    </vehicle>
    <vehicle id="207" depart="574.0">
        <route edges="1Wi 2Wi 5Ni 4Ei 1Si 0Ei"/>
    </vehicle>
    <vehicle id="208" depart="578.0">
        <route edges="2Ei 1Ei 4Ni"/>
    </vehicle>
    <vehicle id="209" depart="580.0">
        <route edges="7Si 6Ei 3Si 0Si"/>
    </vehicle>
    <vehicle id="210" depart="582.0">
        <route edges="3Si 4Wi 7Ni 8Wi 5Si"/>
    </vehicle>
    <vehicle id="211" depart="585.0">
        <route edges="1Si 0Ei 3Ni 6Ni"/>
    </vehicle>
    <vehicle id="212" depart="586.0">
        <route edges="4Ni 5Wi 2Si 2Eo"/>
    </vehicle>
    <vehicle id="213" depart="589.0">
        <route edges="5Wi 2Si 1Ei 0Ei"/>
    </vehicle>
    <vehicle id="214" depart="591.0">
        <route edges="6Wi 3Si 4Wi 7Ni 6Ei 6Wo"/>
    </vehicle>
    <vehicle id="215" depart="597.0">
        <route edges="0Wi 3Ni 3Wo"/>
    </vehicle>
    <vehicle id="216" depart="599.0">
        <route edges="1Si 2Wi 5Ni 8Ni 8So"/>
    </vehicle>
    <vehicle id="217" depart="601.0">
        <route edges="4Si 3Ei 0Si 0No"/>
    </vehicle>
    <vehicle id="218" depart="602.0">
        <route edges="2Ei 1Ei 4Ni 7Ni 7So"/>
    </vehicle>
    <vehicle id="219" depart="602.0">
        <route edges="4Ei 1Si 2Wi 5Ni 8Ni 7Ei"/>
    </vehicle>
    <vehicle id="220" depart="603.0">
        <route edges="6Ei 3Si 4Wi 7Ni 8Wi"/>
    </vehicle>
    <vehicle id="221" depart="603.0">
        <route edges="5Ni 8Ni 8So"/>
    </vehicle>
    <vehicle id="222" depart="604.0">
        <route edges="8Ei 5Si"/>
    </vehicle>
    <vehicle id="223" depart="604.0">
        <route edges="6Ni 7Wi 4Si"/>
    </vehicle>
    <vehicle id="224" depart="605.0">
        <route edges="7Ni 6Ei 3Si 4Wi"/>
    </vehicle>
    <vehicle id="225" depart="608.0">
        <route edges="8Ei 7Ei 6Ei 6So"/>
    </vehicle>
    <vehicle id="226" depart="610.0">
        <route edges="4Ni 5Wi 2Si 2No"/>
    </vehicle>
    <vehicle id="227" depart="610.0">
        <route edges="2Ei 1Ei 4Ni 7Ni 8Wi 5Si"/>
    </vehicle>
    <vehicle id="228" depart="612.0">
        <route edges="6Wi 7Wi 4Si"/>
    </vehicle>
    <vehicle id="229" depart="612.0">
        <route edges="5Si 2Si 2No"/>
    </vehicle>
    <vehicle id="230" depart="612.0">
        <route edges="0Si 1Wi 4Ni 5Wi 2Si"/>
    </vehicle>
    <vehicle id="231" depart="614.0">
        <route edges="2Ni 5Ni 4Ei 1Si 2Wi"/>
    </vehicle>
    <vehicle id="232" depart="614.0">
        <route edges="4Wi 5Wi 2Si 1Ei"/>
    </vehicle>
    <vehicle id="233" depart="615.0">
        <route edges="2Ei 5Ni 8Ni 7Ei 6Ei"/>
    </vehicle>
    <vehicle id="234" depart="617.0">
        <route edges="6Ni 7Wi 4Si 3Ei 0Si"/>
    </vehicle>
    <vehicle id="235" depart="618.0">
        <route edges="3Si 4Wi"/>
    </vehicle>
    <vehicle id="236" depart="623.0">
        <route edges="3Si 0Si 1Wi"/>
    </vehicle>
    <vehicle id="237" depart="623.0">
        <route edges="3Wi 4Wi 5Wi 8Ni 8Eo"/>
    </vehicle>
    <vehicle id="238" depart="623.0">
        <route edges="5Ni 4Ei 3Ei 6Ni"/>
    </vehicle>
    <vehicle id="239" depart="623.0">
        <route edges="7Si 6Ei 6Wo"/>
    </vehicle>
    <vehicle id="240" depart="624.0">
        <route edges="3Ni 4Wi 1Si 0Ei"/>
    </vehicle>
    <vehicle id="241" depart="627.0">
        <route edges="3Ei 6Ni 6Wo"/>
    </vehicle>
    <vehicle id="242" depart="629.0">
        <route edges="7Si 8Wi 8So"/>
    </vehicle>
    <vehicle id="243" depart="630.0">
        <route edges="3Wi 6Ni 6So"/>
    </vehicle>
    <vehicle id="244" depart="632.0">
        <route edges="4Wi 1Si 2Wi 5Ni"/>
    </vehicle>
    <vehicle id="245" depart="637.0">
        <route edges="1Wi"/>
    </vehicle>
    <vehicle id="246" depart="641.0">
        <route edges="3Wi 0Si 0No"/>
    </vehicle>
    <vehicle id="247" depart="647.0">
        <route edges="3Ei 0Si 1Wi 4Ni 7Ni 6Ei"/>
    </vehicle>
    <vehicle id="248" depart="648.0">
        <route edges="3Si 0Si 1Wi 1No"/>
    </vehicle>
    <vehicle id="249" depart="649.0">
        <route edges="4Ei 7Ni 8Wi 5Si 2Si 1Ei"/>
    </vehicle>
    <vehicle id="250" depart="651.0">
        <route edges="5Si 2Si 1Ei 0Ei"/>
    </vehicle>
    <vehicle id="251" depart="651.0">
        <route edges="3Si 4Wi 5Wi 5Eo"/>
    </vehicle>
    <vehicle id="252" depart="652.0">
        <route edges="0Ei 3Ni 4Wi 5Wi"/>
    </vehicle>
    <vehicle id="253" depart="653.0">
        <route edges="1Ei 4Ni 7Ni 8Wi 5Si 4Ei"/>
    </vehicle>
    <vehicle id="254" depart="653.0">
        <route edges="0Ni 3Ni"/>
    </vehicle>
    <vehicle id="255" depart="654.0">
        <route edges="1Wi 2Wi"/>
    </vehicle>
    <vehicle id="256" depart="654.0">
        <route edges="6Wi 7Wi 4Si 1Si 0Ei 3Ni"/>
    </vehicle>
    <vehicle id="257" depart="655.0">
        <route edges="6Wi 3Si 4Wi 7Ni"/>
    </vehicle>
    <vehicle id="258" depart="655.0">
        <route edges="2Ni 5Ni 4Ei 3Ei 0Si"/>
    </vehicle>
    <vehicle id="259" depart="656.0">
        <route edges="0Ei 3Ni 4Wi"/>
    </vehicle>
    <vehicle id="260" depart="662.0">
        <route edges="8Wi 5Si 4Ei 3Ei"/>
    </vehicle>
    <vehicle id="261" depart="665.0">
        <route edges="5Wi 8Ni 7Ei"/>
    </vehicle>
    <vehicle id="262" depart="665.0">
        <route edges="5Wi 8Ni 7Ei 6Ei 6Wo"/>
    </vehicle>
    <vehicle id="263" depart="666.0">
        <route edges="8Si 7Ei 6Ei 3Si 0Si 1Wi"/>
    </vehicle>
    <vehicle id="264" depart="670.0">
        <route edges="0Ei 3Ni 4Wi 1Si 1No"/>
    </vehicle>
    <vehicle id="265" depart="676.0">
        <route edges="1Ei 4Ni 7Ni 6Ei"/>
    </vehicle>
    <vehicle id="266" depart="677.0">
        <route edges="5Ei 4Ei 3Ei 0Si 1Wi"/>
    </vehicle>
    <vehicle id="267" depart="677.0">
        <route edges="6Ni 6Wo"/>
    </vehicle>
    <vehicle id="268" depart="679.0">
        <route edges="1Si 2Wi 5Ni"/>
    </vehicle>
    <vehicle id="269" depart="679.0">
        <route edges="6Si 7Wi 8Wi 5Si 2Si 1Ei"/>
    </vehicle>
    <vehicle id="270" depart="685.0">
        <route edges="7Ni 8Wi 8So"/>
    </vehicle>
    <vehicle id="271" depart="687.0">
        <route edges="0Wi 3Ni 4Wi 1Si 0Ei"/>
    </vehicle>
    <vehicle id="272" depart="689.0">
        <route edges="2Wi 5Ni 8Ni 7Ei 6Ei"/>
    </vehicle>
    <vehicle id="273" depart="691.0">
        <route edges="8Si 7Ei 6Ei 3Si"/>
    </vehicle>
    <vehicle id="274" depart="691.0">
        <route edges="6Ni 7Wi 4Si 3Ei 0Si"/>
    </vehicle>
    <vehicle id="275" depart="693.0">
        <route edges="6Ei 3Si 4Wi 7Ni 8Wi 5Si"/>
    </vehicle>
    <vehicle id="276" depart="697.0">
        <route edges="0Wi 3Ni 6Ni 6Wo"/>
    </vehicle>
    <vehicle id="277" depart="697.0">
        <route edges="7Si 4Si 1Si 2Wi 5Ni"/>
    </vehicle>
    <vehicle id="278" depart="701.0">
        <route edges="1Ei 4Ni 7Ni 8Wi"/>
    </vehicle>
    <vehicle id="279" depart="703.0">
        <route edges="7Ei 4Si 3Ei"/>
    </vehicle>
    <vehicle id="280" depart="705.0">
        <route edges="3Wi 4Wi 1Si 0Ei 3Ni"/>
    </vehicle>
    <vehicle id="281" depart="708.0">
        <route edges="4Si 3Ei"/>
    </vehicle>
    <vehicle id="282" depart="708.0">
        <route edges="7Si 6Ei 3Si 4Wi 7Ni"/>
    </vehicle>
    <vehicle id="283" depart="709.0">
        <route edges="0Wi 1Wi 2Wi 5Ni 8Ni 8So"/>
    </vehicle>
    <vehicle id="284" depart="709.0">
        <route edges="5Si 4Ei 7Ni"/>
    </vehicle>
    <vehicle id="285" depart="713.0">
        <route edges="6Ni 7Wi 4Si 3Ei 3Wo"/>
    </vehicle>
    <vehicle id="286" depart="715.0">
        <route edges="6Si 7Wi 8Wi 8So"/>
    </vehicle>
    <vehicle id="287" depart="721.0">
        <route edges="2Ni 5Ni 4Ei 7Ni"/>
    </vehicle>
    <vehicle id="288" depart="727.0">
        <route edges="4Wi 5Wi 2Si 1Ei 4Ni"/>
    </vehicle>
    <vehicle id="289" depart="727.0">
        <route edges="3Wi 6Ni 6So"/>
    </vehicle>
    <vehicle id="290" depart="728.0">
        <route edges="2Ni 5Ni 8Ni 7Ei 7So"/>
    </vehicle>
    <vehicle id="291" depart="728.0">
        <route edges="7Ni 6Ei 3Si 0Si 0Wo"/>
    </vehicle>
    <vehicle id="292" depart="736.0">
        <route edges="7Wi 4Si 1Si 2Wi 2Eo"/>
    </vehicle>
    <vehicle id="293" depart="740.0">
        <route edges="4Ei 1Si 2Wi 5Ni"/>
    </vehicle>
    <vehicle id="294" depart="740.0">
        <route edges="3Ni 4Wi 1Si 0Ei 0No"/>
    </vehicle>
    <vehicle id="295" depart="741.0">
        <route edges="7Si 4Si 1Si"/>
    </vehicle>
    <vehicle id="296" depart="742.0">
        <route edges="1Wi 2Wi 5Ni 8Ni 7Ei"/>
    </vehicle>
    <vehicle id="297" depart="743.0">
        <route edges="3Ei 6Ni 7Wi"/>
    </vehicle>
    <vehicle id="298" depart="748.0">
        <route edges="6Ni 7Wi 8Wi 5Si 2Si 2No"/>
    </vehicle>
    <vehicle id="299" depart="748.0">
        <route edges="0Ei 3Ni 6Ni 7Wi 8Wi 8So"/>
    </vehicle>
    <vehicle id="300" depart="750.0">
        <route edges="0Wi 3Ni 6Ni"/>
    </vehicle>
    <vehicle id="301" depart="754.0">
        <route edges="4Ni 7Ni 6Ei 6Wo"/>
    </vehicle>
    <vehicle id="302" depart="754.0">
        <route edges="6Ei 3Si 4Wi 5Wi"/>
    </vehicle>
    <vehicle id="303" depart="755.0">
        <route edges="4Ni 5Wi 8Ni 7Ei"/>
    </vehicle>
    <vehicle id="304" depart="756.0">