<?xml version="1.0" encoding="UTF-8"?>

<!-- generated on 2023-06-30 15:39:23.473586 by randomTrips.py v1_17_0+0000-737931d58da
<configuration>
    <net-file value="network/2x2.net.xml"/>
    <route-file value="network/routes.rou.xml"/>
    <end value="1000.0"/>
    <validate value="True"/>
</configuration>
-->

<!-- generated on 2023-06-30 15:39:23 by Eclipse SUMO duarouter Version 1.17.0
<configuration xmlns:xsi="http://www.w3.org/2001/XMLSchema-instance" xsi:noNamespaceSchemaLocation="http://sumo.dlr.de/xsd/duarouterConfiguration.xsd">

    <input>
        <net-file value="network/2x2.net.xml"/>
        <route-files value="trips.trips.xml"/>
    </input>

    <output>
        <output-file value="network/routes.rou.xml"/>
        <alternatives-output value="NUL"/>
    </output>

    <time>
        <begin value="0"/>
        <end value="1000.0"/>
    </time>

    <report>
        <no-warnings value="true"/>
        <ignore-errors value="true"/>
        <no-step-log value="true"/>
    </report>

</configuration>
-->

<routes xmlns:xsi="http://www.w3.org/2001/XMLSchema-instance" xsi:noNamespaceSchemaLocation="http://sumo.dlr.de/xsd/routes_file.xsd">
    <vehicle id="0" depart="40.0">
        <route edges="h22 v12 -h12"/>
    </vehicle>
    <vehicle id="1" depart="63.0">
        <route edges="-v11 -h12 -v22 -h23"/>
    </vehicle>
    <vehicle id="2" depart="91.0">
        <route edges="h23 h22 h21"/>
    </vehicle>
    <vehicle id="3" depart="110.0">
        <route edges="v22 -h13"/>
    </vehicle>
    <vehicle id="4" depart="122.0">
        <route edges="-v21 -v22 h22 v12 -h12"/>
    </vehicle>
    <vehicle id="5" depart="125.0">
        <route edges="-h22 v22 h12 h11"/>
    </vehicle>
    <vehicle id="6" depart="128.0">
        <route edges="-h11 -h12 -v22 -h23"/>
    </vehicle>
    <vehicle id="7" depart="158.0">
        <route edges="h22 v12 h11"/>
    </vehicle>
    <vehicle id="8" depart="159.0">
        <route edges="-h22 v22 h12"/>
    </vehicle>
    <vehicle id="9" depart="183.0">
        <route edges="v12 -h12"/>
    </vehicle>
    <vehicle id="10" depart="211.0">
        <route edges="v12 -h12 -v22 h22"/>
    </vehicle>
    <vehicle id="11" depart="218.0">
        <route edges="-v12 -h22"/>
    </vehicle>
    <vehicle id="12" depart="221.0">
        <route edges="v23 h22 -v13"/>
    </vehicle>
    <vehicle id="13" depart="230.0">
        <route edges="-h12 -h13"/>
    </vehicle>
    <vehicle id="14" depart="235.0">
        <route edges="v13 -h22 v22 h12"/>
    </vehicle>
    <vehicle id="15" depart="236.0">
        <route edges="v12 -h12 -v22 h22"/>
    </vehicle>
    <vehicle id="16" depart="244.0">
        <route edges="h12 -v12 -h22 v22"/>
    </vehicle>
    <vehicle id="17" depart="248.0">
        <route edges="-v21 h12 h11"/>
    </vehicle>
    <vehicle id="18" depart="249.0">
        <route edges="v13 -h22 v22 h12"/>
    </vehicle>
    <vehicle id="19" depart="252.0">
        <route edges="v13 -h22 v22 h12"/>
    </vehicle>
    <vehicle id="20" depart="260.0">
        <route edges="h23 h22 v12 -h12"/>
    </vehicle>
    <vehicle id="21" depart="268.0">
        <route edges="-h22 v22 h12 -v12"/>
    </vehicle>
    <vehicle id="22" depart="276.0">
        <route edges="-h12 -v22 -h23"/>
    </vehicle>
    <vehicle id="24" depart="276.0">
        <route edges="h22 -v13"/>
    </vehicle>
    <vehicle id="25" depart="285.0">
        <route edges="-v12 -h22 -h23"/>
    </vehicle>
    <vehicle id="26" depart="290.0">
        <route edges="-v11 -h12 v21"/>
    </vehicle>
    <vehicle id="28" depart="293.0">
        <route edges="-h21 v12 -h12 -v22 h22"/>
    </vehicle>
    <vehicle id="29" depart="302.0">
        <route edges="-h21 v12 -h12 -v22"/>
    </vehicle>
    <vehicle id="30" depart="304.0">
        <route edges="v23 h22 h21"/>
    </vehicle>
    <vehicle id="31" depart="308.0">
        <route edges="h12 -v12 h21"/>
    </vehicle>
    <vehicle id="32" depart="317.0">
        <route edges="v13 v12 v11"/>
    </vehicle>
    <vehicle id="34" depart="324.0">
        <route edges="-v12"/>
    </vehicle>
    <vehicle id="35" depart="337.0">
        <route edges="-h22 v22"/>
    </vehicle>
    <vehicle id="36" depart="337.0">
        <route edges="v22 h12 -v12 -v13"/>
    </vehicle>
    <vehicle id="37" depart="344.0">
        <route edges="h22 v12 -h12 -v22"/>
    </vehicle>
    <vehicle id="38" depart="384.0">
        <route edges="v22 h12 -v12 -h22 -v23"/>
    </vehicle>
    <vehicle id="39" depart="399.0">
        <route edges="-v11 -h12 -v22 -h23"/>
    </vehicle>
    <vehicle id="40" depart="400.0">
        <route edges="h12 -v12"/>
    </vehicle>
    <vehicle id="41" depart="407.0">
        <route edges="h13 v21"/>
    </vehicle>
    <vehicle id="42" depart="413.0">
        <route edges="-v21 -v22 -h23"/>
    </vehicle>
    <vehicle id="43" depart="415.0">
        <route edges="v23 h22 v12 h11"/>
    </vehicle>
    <vehicle id="44" depart="419.0">
        <route edges="-h12"/>
    </vehicle>
    <vehicle id="45" depart="428.0">
        <route edges="-h12 -v22 h22 h21"/>
    </vehicle>
    <vehicle id="46" depart="431.0">
        <route edges="v12 -h12 -v22"/>
    </vehicle>
    <vehicle id="47" depart="434.0">
        <route edges="-h12 -v22"/>
    </vehicle>
    <vehicle id="48" depart="434.0">
        <route edges="v23 h22 v12 h11"/>
    </vehicle>
    <vehicle id="49" depart="446.0">
        <route edges="v23 h22 v12"/>
    </vehicle>
    <vehicle id="50" depart="448.0">
        <route edges="-h11 -h12 -v22 h22"/>
    </vehicle>
    <vehicle id="51" depart="454.0">
        <route edges="h22 v12 h11"/>
    </vehicle>
    <vehicle id="52" depart="460.0">
        <route edges="-v11 -v12 h21"/>
    </vehicle>
    <vehicle id="53" depart="464.0">
        <route edges="-h12 -v22"/>
    </vehicle>
    <vehicle id="55" depart="470.0">
        <route edges="v22 h12 -v12"/>
    </vehicle>
    <vehicle id="56" depart="474.0">
        <route edges="h12 -v12 -h22"/>
    </vehicle>
    <vehicle id="58" depart="477.0">
        <route edges="-v11 -v12 h21"/>
    </vehicle>
    <vehicle id="59" depart="480.0">
        <route edges="h13 h12 -v12 -h22"/>
    </vehicle>
    <vehicle id="60" depart="480.0">
        <route edges="v12 h11"/>
    </vehicle>
    <vehicle id="61" depart="485.0">
        <route edges="v12 h11"/>
    </vehicle>
    <vehicle id="62" depart="485.0">
        <route edges="-h11 -v12 -v13"/>
    </vehicle>
    <vehicle id="63" depart="489.0">
        <route edges="-h11 -h12 v21"/>
    </vehicle>
    <vehicle id="65" depart="493.0">
        <route edges="-v11 -h12"/>
    </vehicle>
    <vehicle id="66" depart="495.0">
        <route edges="v22"/>
    </vehicle>
    <vehicle id="67" depart="496.0">
        <route edges="-h12 -v22 -v23"/>
    </vehicle>
    <vehicle id="68" depart="496.0">
        <route edges="-h12 -v22 h22 v12 v11"/>
    </vehicle>
    <vehicle id="70" depart="499.0">
        <route edges="-v22 h22 v12 h11"/>
    </vehicle>
    <vehicle id="71" depart="509.0">
        <route edges="-v11 -h12 -v22 h22 v12"/>
    </vehicle>
    <vehicle id="72" depart="510.0">
        <route edges="-v21 -v22 -h23"/>
    </vehicle>
    <vehicle id="74" depart="513.0">
        <route edges="-h22 v22 h12 -v12"/>
    </vehicle>
    <vehicle id="75" depart="515.0">
        <route edges="v23 h22 h21"/>
    </vehicle>
    <vehicle id="76" depart="517.0">
        <route edges="-v22 h22 v12 h11"/>
    </vehicle>
    <vehicle id="77" depart="519.0">
        <route edges="-h12 -v22 -h23"/>
    </vehicle>
    <vehicle id="78" depart="520.0">
        <route edges="-v12 -h22 v22 h12"/>
    </vehicle>
    <vehicle id="79" depart="523.0">
        <route edges="-h22 -h23"/>
    </vehicle>
    <vehicle id="80" depart="529.0">
        <route edges="-h12 -v22 h22 h21"/>
    </vehicle>
    <vehicle id="81" depart="530.0">
        <route edges="-h22 v22 v21"/>
    </vehicle>
    <vehicle id="82" depart="535.0">
        <route edges="v13 -h22 v22 -h13"/>
    </vehicle>
    <vehicle id="83" depart="539.0">
        <route edges="-h22 v22 h12 -v12 h21"/>
    </vehicle>
    <vehicle id="84" depart="559.0">
        <route edges="-h22"/>
    </vehicle>
    <vehicle id="85" depart="559.0">
        <route edges="v22 h12"/>
    </vehicle>
    <vehicle id="86" depart="561.0">
        <route edges="-v22 h22 v12 v11"/>
    </vehicle>
    <vehicle id="87" depart="564.0">
        <route edges="v12 -h12 -v22 -h23"/>
    </vehicle>
    <vehicle id="88" depart="565.0">
        <route edges="-h12 -v22"/>
    </vehicle>
    <vehicle id="89" depart="567.0">
        <route edges="-v21 -v22 -v23"/>
    </vehicle>
    <vehicle id="90" depart="567.0">
        <route edges="h23 h22 h21"/>
    </vehicle>
    <vehicle id="91" depart="586.0">
        <route edges="v23 v22 -h13"/>
    </vehicle>
    <vehicle id="92" depart="591.0">
        <route edges="-v21 -v22 h22 -v13"/>
    </vehicle>
    <vehicle id="93" depart="595.0">
        <route edges="v13 -h22 -h23"/>
    </vehicle>
    <vehicle id="94" depart="601.0">
        <route edges="-h22 -v23"/>
    </vehicle>
    <vehicle id="95" depart="603.0">
        <route edges="-v21 h12 -v12"/>
    </vehicle>
    <vehicle id="96" depart="603.0">
        <route edges="-h22 v22 v21"/>
    </vehicle>
    <vehicle id="97" depart="606.0">
        <route edges="-v22 h22 v12"/>
    </vehicle>
    <vehicle id="99" depart="606.0">
        <route edges="v23 h22 v12"/>
    </vehicle>
    <vehicle id="100" depart="615.0">
        <route edges="v23 v22 v21"/>
    </vehicle>
    <vehicle id="101" depart="616.0">
        <route edges="v13 -h22"/>
    </vehicle>
    <vehicle id="102" depart="623.0">
        <route edges="-v22 -h23"/>
    </vehicle>
    <vehicle id="103" depart="624.0">
        <route edges="-v21 -v22 h22 v12 -h12"/>
    </vehicle>
    <vehicle id="104" depart="635.0">
        <route edges="-v21 h12 -v12 -h22 v22"/>
    </vehicle>
    <vehicle id="105" depart="636.0">
        <route edges="-v11 -h12 -v22 h22 v12 v11"/>
    </vehicle>
    <vehicle id="106" depart="636.0">
        <route edges="-v22"/>
    </vehicle>
    <vehicle id="107" depart="637.0">
        <route edges="v23 v22"/>
    </vehicle>
    <vehicle id="109" depart="639.0">
        <route edges="-h21 -h22 v22 h12 -v12"/>
    </vehicle>
    <vehicle id="110" depart="640.0">
        <route edges="v23 v22 h12"/>
    </vehicle>
    <vehicle id="112" depart="644.0">
        <route edges="-h11 -v12 -h22 v22 h12"/>
    </vehicle>
    <vehicle id="114" depart="646.0">
        <route edges="-h21 -h22 v22"/>
    </vehicle>
    <vehicle id="116" depart="646.0">
        <route edges="h13 -v22 h22 h21"/>
    </vehicle>
    <vehicle id="117" depart="655.0">
        <route edges="-h22 v22 -h13"/>
    </vehicle>
    <vehicle id="118" depart="662.0">
        <route edges="v22 h12 -v12 -h22 -h23"/>
    </vehicle>
    <vehicle id="119" depart="666.0">
        <route edges="h13 h12"/>
    </vehicle>
    <vehicle id="120" depart="668.0">
        <route edges="-v21 h12"/>
    </vehicle>
    <vehicle id="121" depart="675.0">
        <route edges="h12 -v12 -h22 v22 v21"/>
    </vehicle>
    <vehicle id="125" depart="681.0">
        <route edges="-v12 -h22 v22 h12 v11"/>
    </vehicle>
    <vehicle id="126" depart="681.0">
        <route edges="-h12 -v22 -v23"/>
    </vehicle>
    <vehicle id="127" depart="688.0">
        <route edges="v23 v22"/>
    </vehicle>
    <vehicle id="128" depart="688.0">
        <route edges="-h12 -v22 -h23"/>
    </vehicle>
    <vehicle id="129" depart="689.0">
        <route edges="-v11 -h12 v21"/>
    </vehicle>
    <vehicle id="130" depart="691.0">
        <route edges="v22 v21"/>
    </vehicle>
    <vehicle id="131" depart="692.0">
        <route edges="-v12 -h22"/>
    </vehicle>
    <vehicle id="132" depart="693.0">
        <route edges="v13 v12 -h12 -v22 h22"/>
    </vehicle>
    <vehicle id="133" depart="695.0">
        <route edges="h13 h12 -v12 -h22 v22"/>
    </vehicle>
    <vehicle id="134" depart="698.0">
        <route edges="h22 v12 -h12"/>
    </vehicle>
    <vehicle id="135" depart="699.0">
        <route edges="v13 -h22 v22 h12 -v12"/>
    </vehicle>
    <vehicle id="137" depart="700.0">
        <route edges="-h21 v12 -h12 -h13"/>
    </vehicle>
    <vehicle id="138" depart="704.0">
        <route edges="-h12 -v22 h22 v12 h11"/>
    </vehicle>
    <vehicle id="139" depart="717.0">
        <route edges="-v11 -v12 -h22 v22 h12"/>
    </vehicle>
    <vehicle id="140" depart="722.0">
        <route edges="h23 h22 v12 -h12 -v22 -h23"/>
    </vehicle>
    <vehicle id="142" depart="725.0">
        <route edges="-v22 h22 v12 -h12 v21"/>
    </vehicle>
    <vehicle id="143" depart="734.0">
        <route edges="v13 -h22 v22 -h13"/>
    </vehicle>
    <vehicle id="144" depart="740.0">
        <route edges="-v21 h12 -v12"/>
    </vehicle>
    <vehicle id="145" depart="743.0">
        <route edges="-h11 v11"/>
    </vehicle>
    <vehicle id="147" depart="745.0">
        <route edges="h23 h22 v12 h11"/>
    </vehicle>
    <vehicle id="148" depart="756.0">
        <route edges="-v21 -v22 h22 v12 -h12"/>
    </vehicle>
    <vehicle id="149" depart="757.0">
        <route edges="-h12 v21"/>
    </vehicle>
    <vehicle id="150" depart="759.0">
        <route edges="v22 h12 h11"/>
    </vehicle>
    <vehicle id="151" depart="761.0">
        <route edges="v13 -h22 v22 h12"/>
    </vehicle>
    <vehicle id="152" depart="768.0">
        <route edges="-h21 -h22"/>
    </vehicle>
    <vehicle id="153" depart="772.0">
        <route edges="-v11 -h12 v21"/>
    </vehicle>
    <vehicle id="154" depart="773.0">
        <route edges="v12"/>
    </vehicle>
    <vehicle id="155" depart="775.0">
        <route edges="v22 h12 -v12 -h22 -h23"/>
    </vehicle>
    <vehicle id="156" depart="781.0">
        <route edges="-h22 v22 -h13"/>
    </vehicle>
    <vehicle id="157" depart="781.0">
        <route edges="v12 -h12 v21"/>
    </vehicle>
    <vehicle id="158" depart="783.0">
        <route edges="-v21 h12"/>
    </vehicle>
    <vehicle id="159" depart="784.0">
        <route edges="-h21 v12 -h12 v21"/>
    </vehicle>
    <vehicle id="160" depart="788.0">
        <route edges="v13 -h22 v22"/>
    </vehicle>
    <vehicle id="161" depart="791.0">
        <route edges="v12 -h12 v21"/>
    </vehicle>
    <vehicle id="162" depart="791.0">
        <route edges="-h11 -h12 -v22 h22"/>
    </vehicle>
    <vehicle id="163" depart="792.0">
        <route edges="-v12 -h22 v22 v21"/>
    </vehicle>
    <vehicle id="164" depart="794.0">
        <route edges="v12"/>
    </vehicle>
    <vehicle id="166" depart="795.0">
        <route edges="v12 -h12 -h13"/>
    </vehicle>
    <vehicle id="167" depart="796.0">
        <route edges="v13 v12"/>
    </vehicle>
    <vehicle id="170" depart="797.0">
        <route edges="v12 -h12 -v22 -h23"/>
    </vehicle>
    <vehicle id="171" depart="797.0">
        <route edges="-h11 -h12 -v22 -h23"/>
    </vehicle>
    <vehicle id="173" depart="798.0">
        <route edges="v23 v22 h12 -v12"/>
    </vehicle>
    <vehicle id="174" depart="804.0">
        <route edges="h22 v12 -h12 -v22"/>
    </vehicle>
    <vehicle id="175" depart="809.0">
        <route edges="v23 h22 v12 h11"/>
    </vehicle>
    <vehicle id="176" depart="813.0">
        <route edges="v23 v22 -h13"/>
    </vehicle>
    <vehicle id="177" depart="822.0">
        <route edges="v23 v22 h12 -v12 -h22"/>
    </vehicle>
    <vehicle id="178" depart="823.0">
        <route edges="v23 v22 h12 -v12"/>
    </vehicle>
    <vehicle id="179" depart="825.0">
        <route edges="-h12 -v22"/>
    </vehicle>
    <vehicle id="180" depart="825.0">
        <route edges="h23 h22 -v13"/>
    </vehicle>
    <vehicle id="181" depart="830.0">
        <route edges="h13 h12 h11"/>
    </vehicle>
    <vehicle id="182" depart="838.0">
        <route edges="-v21 h12"/>
    </vehicle>
    <vehicle id="183" depart="839.0">
        <route edges="-v11 -h12 -v22 h22"/>
    </vehicle>
    <vehicle id="184" depart="840.0">
        <route edges="-h11 -h12 v21"/>
    </vehicle>
    <vehicle id="186" depart="846.0">
        <route edges="h23 h22 h21"/>
    </vehicle>
    <vehicle id="187" depart="851.0">
        <route edges="-v12 -h22 v22 -h13"/>
    </vehicle>
    <vehicle id="188" depart="855.0">
        <route edges="h22 -v13"/>
    </vehicle>
    <vehicle id="190" depart="861.0">
        <route edges="h23 v22 h12 -v12"/>
    </vehicle>
    <vehicle id="191" depart="864.0">
        <route edges="-v11 -h12 -v22"/>
    </vehicle>
    <vehicle id="192" depart="864.0">
        <route edges="-v21 h12 -v12"/>
    </vehicle>
    <vehicle id="193" depart="866.0">
        <route edges="-h21 v12 -h12 -v22"/>
    </vehicle>
    <vehicle id="194" depart="868.0">
        <route edges="v23 h22 h21"/>
    </vehicle>
    <vehicle id="195" depart="870.0">
        <route edges="v22 h12"/>
    </vehicle>
    <vehicle id="196" depart="874.0">
        <route edges="-v11 h11"/>
    </vehicle>
    <vehicle id="197" depart="876.0">
        <route edges="-h11 -v12"/>
    </vehicle>
    <vehicle id="198" depart="888.0">
        <route edges="-v21 h12"/>
    </vehicle>
    <vehicle id="199" depart="888.0">
        <route edges="h22 v12 -h12 -v22 -v23"/>
    </vehicle>
    <vehicle id="200" depart="889.0">
        <route edges="-v22 -h23"/>
    </vehicle>
    <vehicle id="201" depart="889.0">
        <route edges="-v22 h22 v12 -h12 v21"/>
    </vehicle>
    <vehicle id="203" depart="892.0">
        <route edges="-h12 -v22 h22 v12 h11"/>
    </vehicle>
    <vehicle id="204" depart="895.0">
        <route edges="h22 -v13"/>
    </vehicle>
    <vehicle id="205" depart="897.0">
        <route edges="v13 v12 v11"/>
    </vehicle>
    <vehicle id="206" depart="899.0">
        <route edges="h22 v12 -h12 -v22 -h23"/>
    </vehicle>
    <vehicle id="208" depart="899.0">
        <route edges="-h22 -v23"/>
    </vehicle>
    <vehicle id="209" depart="900.0">
        <route edges="v13 -h22 v22 -h13"/>
    </vehicle>
    <vehicle id="210" depart="900.0">
        <route edges="-v21 h12 -v12 h21"/>
    </vehicle>
    <vehicle id="212" depart="903.0">
        <route edges="-v22 -h23"/>
    </vehicle>
    <vehicle id="213" depart="910.0">
        <route edges="h22 v12 -h12"/>
    </vehicle>
    <vehicle id="214" depart="911.0">
        <route edges="v12 v11"/>
    </vehicle>
    <vehicle id="215" depart="912.0">
        <route edges="-h12 -v22"/>
    </vehicle>
    <vehicle id="216" depart="914.0">
        <route edges="-h21 -h22 v22"/>
    </vehicle>
    <vehicle id="219" depart="915.0">
        <route edges="-v22 h22 v12 v11"/>
    </vehicle>
    <vehicle id="221" depart="917.0">
        <route edges="h13 h12 -v12 -h22 v22"/>
    </vehicle>
    <vehicle id="222" depart="917.0">
        <route edges="v22 h12"/>
    </vehicle>
    <vehicle id="223" depart="917.0">
        <route edges="h23 h22 v12 h11"/>
    </vehicle>
    <vehicle id="224" depart="918.0">
        <route edges="v13 v12 h11"/>
    </vehicle>
    <vehicle id="227" depart="924.0">
        <route edges="-h22 v22 h12 -v12 h21"/>
    </vehicle>
    <vehicle id="228" depart="924.0">
        <route edges="v12 h11"/>
    </vehicle>
    <vehicle id="231" depart="925.0">
        <route edges="-v11 -v12 -v13"/>
    </vehicle>
    <vehicle id="232" depart="926.0">
        <route edges="h12 -v12 -h22"/>
    </vehicle>
    <vehicle id="234" depart="927.0">
        <route edges="h23 v22 -h13"/>
    </vehicle>
    <vehicle id="235" depart="930.0">
        <route edges="-v21 h12 h11"/>
    </vehicle>
    <vehicle id="236" depart="931.0">
        <route edges="-v21 -v22 -h23"/>
    </vehicle>
    <vehicle id="237" depart="935.0">
        <route edges="-v21 -v22 h22 v12 -h12 v21"/>
    </vehicle>
    <vehicle id="238" depart="939.0">
        <route edges="h13 -v22 h22"/>
    </vehicle>
    <vehicle id="239" depart="941.0">
        <route edges="v13 v12 v11"/>
    </vehicle>
    <vehicle id="240" depart="942.0">
        <route edges="-v21 -v22 h22 v12 -h12"/>
    </vehicle>
    <vehicle id="241" depart="944.0">
        <route edges="-v12 -h22 v22 h12 v11"/>
    </vehicle>
    <vehicle id="242" depart="948.0">
        <route edges="v13 -h22 v22"/>
    </vehicle>
    <vehicle id="243" depart="950.0">
        <route edges="-v21 -v22 h22"/>
    </vehicle>
    <vehicle id="244" depart="954.0">
        <route edges="h12"/>
    </vehicle>
    <vehicle id="245" depart="957.0">
        <route edges="-h22 -h23"/>
    </vehicle>
    <vehicle id="246" depart="958.0">
        <route edges="-v21 -v22 h22 v12 -h12"/>
    </vehicle>
    <vehicle id="247" depart="958.0">
        <route edges="-v12 h21"/>
    </vehicle>
    <vehicle id="248" depart="959.0">
        <route edges="-v21 h12 -v12 -h22"/>
    </vehicle>
    <vehicle id="250" depart="960.0">
        <route edges="h13 -v22 h22 v12 -h12"/>
    </vehicle>
    <vehicle id="251" depart="965.0">
        <route edges="-v21 h12"/>
    </vehicle>
    <vehicle id="252" depart="970.0">
        <route edges="-h11 -v12 h21"/>
    </vehicle>
    <vehicle id="253" depart="971.0">
        <route edges="-h21 -h22 -v23"/>
    </vehicle>
    <vehicle id="254" depart="974.0">
        <route edges="-h11 -h12 -v22"/>
    </vehicle>
    <vehicle id="255" depart="978.0">
        <route edges="-h22 v22 h12 -v12 -v13"/>
    </vehicle>
    <vehicle id="256" depart="978.0">
        <route edges="v12 -h12 -v22"/>
    </vehicle>
    <vehicle id="257" depart="984.0">
        <route edges="v12"/>
    </vehicle>
    <vehicle id="258" depart="988.0">
        <route edges="-v11 -h12 -h13"/>
    </vehicle>
    <vehicle id="259" depart="992.0">
        <route edges="-h11 -h12 -v22 h22 v12 h11"/>
    </vehicle>
    <vehicle id="260" depart="994.0">
        <route edges="v23 h22 -v13"/>
    </vehicle>
    <vehicle id="261" depart="997.0">
        <route edges="h22 v12 v11"/>
    </vehicle>
    <vehicle id="262" depart="997.0">
        <route edges="h22 v12 v11"/>
    </vehicle>
    <vehicle id="263" depart="998.0">
        <route edges="v23 -h23"/>
    </vehicle>
    <vehicle id="264" depart="1000.0">
        <route edges="-h11 -v12 -h22"/>
    </vehicle>
    <vehicle id="265" depart="1003.0">
        <route edges="-h21 v12 -h12 -v22 h22 h21"/>
    </vehicle>
    <vehicle id="266" depart="1005.0">
        <route edges="h13 -v22 -h23"/>
    </vehicle>
    <vehicle id="267" depart="1005.0">
        <route edges="h23 v22 h12 v11"/>
    </vehicle>
    <vehicle id="268" depart="1006.0">
        <route edges="-h21 -h22 v22 h12"/>
    </vehicle>
    <vehicle id="269" depart="1007.0">
        <route edges="h23 v22 -h13"/>
    </vehicle>
    <vehicle id="270" depart="1012.0">
        <route edges="v13 -h22 v22"/>
    </vehicle>
    <vehicle id="271" depart="1014.0">
        <route edges="-h12"/>
    </vehicle>
    <vehicle id="272" depart="1014.0">
        <route edges="-v11 -v12 h21"/>
    </vehicle>
    <vehicle id="273" depart="1027.0">
        <route edges="v23 h22 v12 -h12 -v22"/>
    </vehicle>
    <vehicle id="274" depart="1028.0">
        <route edges="h23 v22 -h13"/>
    </vehicle>
    <vehicle id="275" depart="1032.0">
        <route edges="h23 h22 h21"/>
    </vehicle>
    <vehicle id="276" depart="1038.0">
        <route edges="-h12 -v22 h22 v12 v11"/>
    </vehicle>
    <vehicle id="277" depart="1039.0">
        <route edges="v13 -h22 v22 h12"/>
    </vehicle>
    <vehicle id="279" depart="1040.0">
        <route edges="v12 -h12 -v22 h22 -v13"/>
    </vehicle>
    <vehicle id="280" depart="1040.0">
        <route edges="-v21 -v22 h22 -v13"/>
    </vehicle>
    <vehicle id="281" depart="1042.0">
        <route edges="h12 -v12 -v13"/>
    </vehicle>
    <vehicle id="282" depart="1043.0">
        <route edges="v13 v12"/>
    </vehicle>
    <vehicle id="284" depart="1046.0">
        <route edges="h22 v12"/>
    </vehicle>
    <vehicle id="285" depart="1048.0">
        <route edges="h23 h22 v12 -h12 -v22"/>
    </vehicle>
    <vehicle id="286" depart="1050.0">
        <route edges="h23 v22"/>
    </vehicle>
    <vehicle id="287" depart="1051.0">
        <route edges="-v11 -h12 -v22 h22 v12 v11"/>
    </vehicle>
    <vehicle id="288" depart="1052.0">
        <route edges="h12 -v12 -h22 -v23"/>
    </vehicle>
    <vehicle id="289" depart="1056.0">
        <route edges="-v21 -v22 h22"/>
    </vehicle>
    <vehicle id="290" depart="1060.0">
        <route edges="-v11 -h12 -v22 h22 v12"/>
    </vehicle>
    <vehicle id="291" depart="1060.0">
        <route edges="v13 -h22 v22 -h13"/>
    </vehicle>
    <vehicle id="292" depart="1062.0">
        <route edges="v22 h12 -v12 -h22 -h23"/>
    </vehicle>
    <vehicle id="294" depart="1066.0">
        <route edges="-v21 -v22 h22 v12 -h12"/>
    </vehicle>
    <vehicle id="295" depart="1076.0">
        <route edges="v13 -h22"/>
    </vehicle>
    <vehicle id="296" depart="1081.0">
        <route edges="-h22 v22 h12 v11"/>
    </vehicle>
    <vehicle id="297" depart="1081.0">
        <route edges="-v12 -h22 v22 v21"/>
    </vehicle>
    <vehicle id="298" depart="1088.0">
        <route edges="h23 v22 h12 -v12"/>
    </vehicle>
    <vehicle id="299" depart="1089.0">
        <route edges="-h11 -v12 -h22 v22"/>
    </vehicle>
    <vehicle id="300" depart="1089.0">
        <route edges="-h12 -v22 h22"/>
    </vehicle>
    <vehicle id="301" depart="1090.0">
        <route edges="-v22 h22 v12 v11"/>
    </vehicle>
    <vehicle id="302" depart="1092.0">
        <route edges="h23 h22 h21"/>
    </vehicle>
    <vehicle id="303" depart="1093.0">
        <route edges="-v22 h22 v12 v11"/>
    </vehicle>
    <vehicle id="304" depart="1094.0">
        <route edges="-h12 -v22 -h23"/>
    </vehicle>
    <vehicle id="305" depart="1095.0">
        <route edges="h23 v22 h12 -v12"/>
    </vehicle>
    <vehicle id="306" depart="1098.0">
        <route edges="h13 -v22 -v23"/>
    </vehicle>
    <vehicle id="308" depart="1100.0">
        <route edges="h23 h22 -v13"/>
    </vehicle>
    <vehicle id="309" depart="1102.0">
        <route edges="h23 v22 h12 -v12"/>
    </vehicle>
    <vehicle id="310" depart="1105.0">
        <route edges="-v11 -h12 -h13"/>
    </vehicle>
    <vehicle id="311" depart="1106.0">
        <route edges="-h22 v22 -h13"/>
    </vehicle>
    <vehicle id="312" depart="1108.0">
        <route edges="h12 v11"/>
    </vehicle>
    <vehicle id="313" depart="1108.0">
        <route edges="-h21 -h22 -h23"/>
    </vehicle>
    <vehicle id="314" depart="1109.0">
        <route edges="-v22 h22"/>
    </vehicle>
    <vehicle id="315" depart="1110.0">
        <route edges="v23 h22 v12 h11"/>
    </vehicle>
    <vehicle id="316" depart="1113.0">
        <route edges="-v11 -h12 -h13"/>
    </vehicle>
    <vehicle id="317" depart="1114.0">
        <route edges="-h22 -h23"/>
    </vehicle>
    <vehicle id="318" depart="1115.0">
        <route edges="-h21 v12 -h12"/>
    </vehicle>
    <vehicle id="319" depart="1115.0">
        <route edges="h12 -v12"/>
    </vehicle>
    <vehicle id="320" depart="1121.0">
        <route edges="v23 h22 v12 h11"/>
    </vehicle>
    <vehicle id="321" depart="1122.0">
        <route edges="h23 v22 h12 -v12 -h22"/>
    </vehicle>
    <vehicle id="322" depart="1125.0">
        <route edges="v13 -h22 -v23"/>
    </vehicle>
    <vehicle id="323" depart="1126.0">
        <route edges="v13 -h22 v22 h12"/>
    </vehicle>
    <vehicle id="324" depart="1129.0">
        <route edges="-v22 -v23"/>
    </vehicle>
    <vehicle id="325" depart="1130.0">
        <route edges="-h21 v12 -h12"/>
    </vehicle>
    <vehicle id="326" depart="1134.0">
        <route edges="v23 h22 v12 -h12 -v22 -v23"/>
    </vehicle>
    <vehicle id="327" depart="1136.0">
        <route edges="v13 v12 -h12 -v22"/>
    </vehicle>
    <vehicle id="328" depart="1137.0">
        <route edges="-h12 -v22 h22 h21"/>
    </vehicle>
    <vehicle id="329" depart="1138.0">
        <route edges="-h11 -v12 -h22"/>
    </vehicle>
    <vehicle id="330" depart="1138.0">
        <route edges="h13 h12 -v12"/>
    </vehicle>
    <vehicle id="331" depart="1138.0">
        <route edges="v23 v22 -h13"/>
    </vehicle>
    <vehicle id="333" depart="1142.0">
        <route edges="v12 -h12 -v22 -h23"/>
    </vehicle>
    <vehicle id="334" depart="1143.0">
        <route edges="h12 -v12 -h22 -v23"/>
    </vehicle>
    <vehicle id="335" depart="1150.0">
        <route edges="-v22 h22 v12"/>
    </vehicle>
    <vehicle id="336" depart="1154.0">
        <route edges="v23 v22 h12 -v12"/>
    </vehicle>
    <vehicle id="337" depart="1155.0">
        <route edges="h13 h12"/>
    </vehicle>
    <vehicle id="338" depart="1155.0">
        <route edges="h23 v22"/>
    </vehicle>
    <vehicle id="339" depart="1165.0">
        <route edges="-h22 -h23"/>
    </vehicle>
    <vehicle id="341" depart="1166.0">
        <route edges="-h21 v12 -h12 -h13"/>
    </vehicle>
    <vehicle id="342" depart="1168.0">
        <route edges="-h11 -v12 -h22 -v23"/>
    </vehicle>
    <vehicle id="343" depart="1169.0">
        <route edges="h13 h12 -v12"/>
    </vehicle>
    <vehicle id="345" depart="1174.0">
        <route edges="h23 -v23"/>
    </vehicle>
    <vehicle id="346" depart="1175.0">
        <route edges="h22 v12 -h12 v21"/>
    </vehicle>
    <vehicle id="347" depart="1180.0">
        <route edges="v12 -h12 -v22 h22 h21"/>
    </vehicle>
    <vehicle id="348" depart="1181.0">
        <route edges="h22 v12 -h12 v21"/>
    </vehicle>
    <vehicle id="349" depart="1181.0">
        <route edges="-v21 h12 h11"/>
    </vehicle>
    <vehicle id="350" depart="1185.0">
        <route edges="h22 v12 -h12 v21"/>
    </vehicle>
    <vehicle id="351" depart="1188.0">
        <route edges="v13 -h22 v22 -h13"/>
    </vehicle>
    <vehicle id="352" depart="1193.0">
        <route edges="-h21 -h22 v22 h12 -v12"/>
    </vehicle>
    <vehicle id="353" depart="1194.0">
        <route edges="h23 v22 h12"/>
    </vehicle>