<?xml version="1.0" encoding="UTF-8"?>

<!-- generated on 2023-06-30 13:09:30.594637 by randomTrips.py v1_17_0+0000-737931d58da
<configuration>
    <net-file value="network/2x2.net.xml"/>
    <route-file value="network/routes.rou.xml"/>
    <end value="10000.0"/>
    <validate value="True"/>
</configuration>
-->

<!-- generated on 2023-06-30 13:09:30 by Eclipse SUMO duarouter Version 1.17.0
<configuration xmlns:xsi="http://www.w3.org/2001/XMLSchema-instance" xsi:noNamespaceSchemaLocation="http://sumo.dlr.de/xsd/duarouterConfiguration.xsd">

    <input>
        <net-file value="network/2x2.net.xml"/>
        <route-files value="trips.trips.xml"/>
    </input>

    <output>
        <output-file value="network/routes.rou.xml"/>
        <alternatives-output value="NUL"/>
    </output>

    <time>
        <begin value="0"/>
        <end value="10000.0"/>
    </time>

    <report>
        <no-warnings value="true"/>
        <ignore-errors value="true"/>
        <no-step-log value="true"/>
    </report>

</configuration>
-->

<routes xmlns:xsi="http://www.w3.org/2001/XMLSchema-instance" xsi:noNamespaceSchemaLocation="http://sumo.dlr.de/xsd/routes_file.xsd">
    <vehicle id="0" depart="9.0">
        <route edges="h22 v12 -h12"/>
    </vehicle>
    <vehicle id="1" depart="26.0">
        <route edges="-v11 -h12 -v22 -h23"/>
    </vehicle>
    <vehicle id="2" depart="26.0">
        <route edges="h23 h22 h21"/>
    </vehicle>
    <vehicle id="3" depart="30.0">
        <route edges="v22 -h13"/>
    </vehicle>
    <vehicle id="4" depart="34.0">
        <route edges="-v21 -v22 h22 v12 -h12"/>
    </vehicle>
    <vehicle id="5" depart="36.0">
        <route edges="-h22 v22 h12 h11"/>
    </vehicle>
    <vehicle id="6" depart="38.0">
        <route edges="-h11 -h12 -v22 -h23"/>
    </vehicle>
    <vehicle id="7" depart="39.0">
        <route edges="h22 v12 h11"/>
    </vehicle>
    <vehicle id="8" depart="47.0">
        <route edges="-h22 v22 h12"/>
    </vehicle>
    <vehicle id="9" depart="53.0">
        <route edges="v12 -h12"/>
    </vehicle>
    <vehicle id="10" depart="58.0">
        <route edges="v12 -h12 -v22 h22"/>
    </vehicle>
    <vehicle id="11" depart="59.0">
        <route edges="-v12 -h22"/>
    </vehicle>
    <vehicle id="12" depart="59.0">
        <route edges="v23 h22 -v13"/>
    </vehicle>
    <vehicle id="13" depart="60.0">
        <route edges="-h12 -h13"/>
    </vehicle>
    <vehicle id="14" depart="61.0">
        <route edges="v13 -h22 v22 h12"/>
    </vehicle>
    <vehicle id="15" depart="61.0">
        <route edges="v12 -h12 -v22 h22"/>
    </vehicle>
    <vehicle id="16" depart="62.0">
        <route edges="h12 -v12 -h22 v22"/>
    </vehicle>
    <vehicle id="17" depart="63.0">
        <route edges="-v21 h12 h11"/>
    </vehicle>
    <vehicle id="18" depart="64.0">
        <route edges="v13 -h22 v22 h12"/>
    </vehicle>
    <vehicle id="19" depart="64.0">
        <route edges="v13 -h22 v22 h12"/>
    </vehicle>
    <vehicle id="20" depart="67.0">
        <route edges="h23 h22 v12 -h12"/>
    </vehicle>
    <vehicle id="21" depart="67.0">
        <route edges="-h22 v22 h12 -v12"/>
    </vehicle>
    <vehicle id="22" depart="68.0">
        <route edges="-h12 -v22 -h23"/>
    </vehicle>
    <vehicle id="24" depart="71.0">
        <route edges="h22 -v13"/>
    </vehicle>
    <vehicle id="25" depart="71.0">
        <route edges="-v12 -h22 -h23"/>
    </vehicle>
    <vehicle id="26" depart="72.0">
        <route edges="-v11 -h12 v21"/>
    </vehicle>
    <vehicle id="28" depart="76.0">
        <route edges="-h21 v12 -h12 -v22 h22"/>
    </vehicle>
    <vehicle id="29" depart="79.0">
        <route edges="-h21 v12 -h12 -v22"/>
    </vehicle>
    <vehicle id="30" depart="80.0">
        <route edges="v23 h22 h21"/>
    </vehicle>
    <vehicle id="31" depart="83.0">
        <route edges="h12 -v12 h21"/>
    </vehicle>
    <vehicle id="32" depart="84.0">
        <route edges="v13 v12 v11"/>
    </vehicle>
    <vehicle id="34" depart="85.0">
        <route edges="-v12"/>
    </vehicle>
    <vehicle id="35" depart="86.0">
        <route edges="-h22 v22"/>
    </vehicle>
    <vehicle id="36" depart="91.0">
        <route edges="v22 h12 -v12 -v13"/>
    </vehicle>
    <vehicle id="37" depart="92.0">
        <route edges="h22 v12 -h12 -v22"/>
    </vehicle>
    <vehicle id="38" depart="93.0">
        <route edges="v22 h12 -v12 -h22 -v23"/>
    </vehicle>
    <vehicle id="39" depart="94.0">
        <route edges="-v11 -h12 -v22 -h23"/>
    </vehicle>
    <vehicle id="40" depart="95.0">
        <route edges="h12 -v12"/>
    </vehicle>
    <vehicle id="41" depart="95.0">
        <route edges="h13 v21"/>
    </vehicle>
    <vehicle id="42" depart="96.0">
        <route edges="-v21 -v22 -h23"/>
    </vehicle>
    <vehicle id="43" depart="96.0">
        <route edges="v23 h22 v12 h11"/>
    </vehicle>
    <vehicle id="44" depart="96.0">
        <route edges="-h12"/>
    </vehicle>
    <vehicle id="45" depart="96.0">
        <route edges="-h12 -v22 h22 h21"/>
    </vehicle>
    <vehicle id="46" depart="96.0">
        <route edges="v12 -h12 -v22"/>
    </vehicle>
    <vehicle id="47" depart="96.0">
        <route edges="-h12 -v22"/>
    </vehicle>
    <vehicle id="48" depart="97.0">
        <route edges="v23 h22 v12 h11"/>
    </vehicle>
    <vehicle id="49" depart="100.0">
        <route edges="v23 h22 v12"/>
    </vehicle>
    <vehicle id="50" depart="100.0">
        <route edges="-h11 -h12 -v22 h22"/>
    </vehicle>
    <vehicle id="51" depart="100.0">
        <route edges="h22 v12 h11"/>
    </vehicle>
    <vehicle id="52" depart="101.0">
        <route edges="-v11 -v12 h21"/>
    </vehicle>
    <vehicle id="53" depart="102.0">
        <route edges="-h12 -v22"/>
    </vehicle>
    <vehicle id="55" depart="102.0">
        <route edges="v22 h12 -v12"/>
    </vehicle>
    <vehicle id="56" depart="103.0">
        <route edges="h12 -v12 -h22"/>
    </vehicle>
    <vehicle id="58" depart="107.0">
        <route edges="-v11 -v12 h21"/>
    </vehicle>
    <vehicle id="59" depart="107.0">
        <route edges="h13 h12 -v12 -h22"/>
    </vehicle>
    <vehicle id="60" depart="108.0">
        <route edges="v12 h11"/>
    </vehicle>
    <vehicle id="61" depart="110.0">
        <route edges="v12 h11"/>
    </vehicle>
    <vehicle id="62" depart="110.0">
        <route edges="-h11 -v12 -v13"/>
    </vehicle>
    <vehicle id="63" depart="111.0">
        <route edges="-h11 -h12 v21"/>
    </vehicle>
    <vehicle id="65" depart="112.0">
        <route edges="-v11 -h12"/>
    </vehicle>
    <vehicle id="66" depart="112.0">
        <route edges="v22"/>
    </vehicle>
    <vehicle id="67" depart="112.0">
        <route edges="-h12 -v22 -v23"/>
    </vehicle>
    <vehicle id="68" depart="114.0">
        <route edges="-h12 -v22 h22 v12 v11"/>
    </vehicle>
    <vehicle id="70" depart="114.0">
        <route edges="-v22 h22 v12 h11"/>
    </vehicle>
    <vehicle id="71" depart="116.0">
        <route edges="-v11 -h12 -v22 h22 v12"/>
    </vehicle>
    <vehicle id="72" depart="117.0">
        <route edges="-v21 -v22 -h23"/>
    </vehicle>
    <vehicle id="74" depart="120.0">
        <route edges="-h22 v22 h12 -v12"/>
    </vehicle>
    <vehicle id="75" depart="122.0">
        <route edges="v23 h22 h21"/>
    </vehicle>
    <vehicle id="76" depart="122.0">
        <route edges="-v22 h22 v12 h11"/>
    </vehicle>
    <vehicle id="77" depart="122.0">
        <route edges="-h12 -v22 -h23"/>
    </vehicle>
    <vehicle id="78" depart="124.0">
        <route edges="-v12 -h22 v22 h12"/>
    </vehicle>
    <vehicle id="79" depart="125.0">
        <route edges="-h22 -h23"/>
    </vehicle>
    <vehicle id="80" depart="126.0">
        <route edges="-h12 -v22 h22 h21"/>
    </vehicle>
    <vehicle id="81" depart="126.0">
        <route edges="-h22 v22 v21"/>
    </vehicle>
    <vehicle id="82" depart="127.0">
        <route edges="v13 -h22 v22 -h13"/>
    </vehicle>
    <vehicle id="83" depart="129.0">
        <route edges="-h22 v22 h12 -v12 h21"/>
    </vehicle>
    <vehicle id="84" depart="130.0">
        <route edges="-h22"/>
    </vehicle>
    <vehicle id="85" depart="131.0">
        <route edges="v22 h12"/>
    </vehicle>
    <vehicle id="86" depart="131.0">
        <route edges="-v22 h22 v12 v11"/>
    </vehicle>
    <vehicle id="87" depart="131.0">
        <route edges="v12 -h12 -v22 -h23"/>
    </vehicle>
    <vehicle id="88" depart="132.0">
        <route edges="-h12 -v22"/>
    </vehicle>
    <vehicle id="89" depart="133.0">
        <route edges="-v21 -v22 -v23"/>
    </vehicle>
    <vehicle id="90" depart="133.0">
        <route edges="h23 h22 h21"/>
    </vehicle>
    <vehicle id="91" depart="134.0">
        <route edges="v23 v22 -h13"/>
    </vehicle>
    <vehicle id="92" depart="135.0">
        <route edges="-v21 -v22 h22 -v13"/>
    </vehicle>
    <vehicle id="93" depart="135.0">
        <route edges="v13 -h22 -h23"/>
    </vehicle>
    <vehicle id="94" depart="135.0">
        <route edges="-h22 -v23"/>
    </vehicle>
    <vehicle id="95" depart="135.0">
        <route edges="-v21 h12 -v12"/>
    </vehicle>
    <vehicle id="96" depart="135.0">
        <route edges="-h22 v22 v21"/>
    </vehicle>
    <vehicle id="97" depart="135.0">
        <route edges="-v22 h22 v12"/>
    </vehicle>
    <vehicle id="99" depart="136.0">
        <route edges="v23 h22 v12"/>
    </vehicle>
    <vehicle id="100" depart="136.0">
        <route edges="v23 v22 v21"/>
    </vehicle>
    <vehicle id="101" depart="137.0">
        <route edges="v13 -h22"/>
    </vehicle>
    <vehicle id="102" depart="138.0">
        <route edges="-v22 -h23"/>
    </vehicle>
    <vehicle id="103" depart="138.0">
        <route edges="-v21 -v22 h22 v12 -h12"/>
    </vehicle>
    <vehicle id="104" depart="139.0">
        <route edges="-v21 h12 -v12 -h22 v22"/>
    </vehicle>
    <vehicle id="105" depart="139.0">
        <route edges="-v11 -h12 -v22 h22 v12 v11"/>
    </vehicle>
    <vehicle id="106" depart="140.0">
        <route edges="-v22"/>
    </vehicle>
    <vehicle id="107" depart="140.0">
        <route edges="v23 v22"/>
    </vehicle>
    <vehicle id="109" depart="140.0">
        <route edges="-h21 -h22 v22 h12 -v12"/>
    </vehicle>
    <vehicle id="110" depart="141.0">
        <route edges="v23 v22 h12"/>
    </vehicle>
    <vehicle id="112" depart="141.0">
        <route edges="-h11 -v12 -h22 v22 h12"/>
    </vehicle>
    <vehicle id="114" depart="141.0">
        <route edges="-h21 -h22 v22"/>
    </vehicle>
    <vehicle id="116" depart="142.0">
        <route edges="h13 -v22 h22 h21"/>
    </vehicle>
    <vehicle id="117" depart="142.0">
        <route edges="-h22 v22 -h13"/>
    </vehicle>
    <vehicle id="118" depart="143.0">
        <route edges="v22 h12 -v12 -h22 -h23"/>
    </vehicle>
    <vehicle id="119" depart="143.0">
        <route edges="h13 h12"/>
    </vehicle>
    <vehicle id="120" depart="144.0">
        <route edges="-v21 h12"/>
    </vehicle>
    <vehicle id="121" depart="144.0">
        <route edges="h12 -v12 -h22 v22 v21"/>
    </vehicle>
    <vehicle id="125" depart="146.0">
        <route edges="-v12 -h22 v22 h12 v11"/>
    </vehicle>
    <vehicle id="126" depart="147.0">
        <route edges="-h12 -v22 -v23"/>
    </vehicle>
    <vehicle id="127" depart="147.0">
        <route edges="v23 v22"/>
    </vehicle>
    <vehicle id="128" depart="148.0">
        <route edges="-h12 -v22 -h23"/>
    </vehicle>
    <vehicle id="129" depart="149.0">
        <route edges="-v11 -h12 v21"/>
    </vehicle>
    <vehicle id="130" depart="151.0">
        <route edges="v22 v21"/>
    </vehicle>
    <vehicle id="131" depart="152.0">
        <route edges="-v12 -h22"/>
    </vehicle>
    <vehicle id="132" depart="152.0">
        <route edges="v13 v12 -h12 -v22 h22"/>
    </vehicle>
    <vehicle id="133" depart="152.0">
        <route edges="h13 h12 -v12 -h22 v22"/>
    </vehicle>
    <vehicle id="134" depart="153.0">
        <route edges="h22 v12 -h12"/>
    </vehicle>
    <vehicle id="135" depart="154.0">
        <route edges="v13 -h22 v22 h12 -v12"/>
    </vehicle>
    <vehicle id="137" depart="154.0">
        <route edges="-h21 v12 -h12 -h13"/>
    </vehicle>
    <vehicle id="138" depart="154.0">
        <route edges="-h12 -v22 h22 v12 h11"/>
    </vehicle>
    <vehicle id="139" depart="154.0">
        <route edges="-v11 -v12 -h22 v22 h12"/>
    </vehicle>
    <vehicle id="140" depart="154.0">
        <route edges="h23 h22 v12 -h12 -v22 -h23"/>
    </vehicle>
    <vehicle id="142" depart="156.0">
        <route edges="-v22 h22 v12 -h12 v21"/>
    </vehicle>
    <vehicle id="143" depart="156.0">
        <route edges="v13 -h22 v22 -h13"/>
    </vehicle>
    <vehicle id="144" depart="156.0">
        <route edges="-v21 h12 -v12"/>
    </vehicle>
    <vehicle id="145" depart="157.0">
        <route edges="-h11 v11"/>
    </vehicle>
    <vehicle id="147" depart="157.0">
        <route edges="h23 h22 v12 h11"/>
    </vehicle>
    <vehicle id="148" depart="160.0">
        <route edges="-v21 -v22 h22 v12 -h12"/>
    </vehicle>
    <vehicle id="149" depart="160.0">
        <route edges="-h12 v21"/>
    </vehicle>
    <vehicle id="150" depart="160.0">
        <route edges="v22 h12 h11"/>
    </vehicle>
    <vehicle id="151" depart="160.0">
        <route edges="v13 -h22 v22 h12"/>
    </vehicle>
    <vehicle id="152" depart="161.0">
        <route edges="-h21 -h22"/>
    </vehicle>
    <vehicle id="153" depart="162.0">
        <route edges="-v11 -h12 v21"/>
    </vehicle>
    <vehicle id="154" depart="163.0">
        <route edges="v12"/>
    </vehicle>
    <vehicle id="155" depart="163.0">
        <route edges="v22 h12 -v12 -h22 -h23"/>
    </vehicle>
    <vehicle id="156" depart="164.0">
        <route edges="-h22 v22 -h13"/>
    </vehicle>
    <vehicle id="157" depart="165.0">
        <route edges="v12 -h12 v21"/>
    </vehicle>
    <vehicle id="158" depart="166.0">
        <route edges="-v21 h12"/>
    </vehicle>
    <vehicle id="159" depart="167.0">
        <route edges="-h21 v12 -h12 v21"/>
    </vehicle>
    <vehicle id="160" depart="167.0">
        <route edges="v13 -h22 v22"/>
    </vehicle>
    <vehicle id="161" depart="168.0">
        <route edges="v12 -h12 v21"/>
    </vehicle>
    <vehicle id="162" depart="170.0">
        <route edges="-h11 -h12 -v22 h22"/>
    </vehicle>
    <vehicle id="163" depart="172.0">
        <route edges="-v12 -h22 v22 v21"/>
    </vehicle>
    <vehicle id="164" depart="172.0">
        <route edges="v12"/>
    </vehicle>
    <vehicle id="166" depart="173.0">
        <route edges="v12 -h12 -h13"/>
    </vehicle>
    <vehicle id="167" depart="173.0">
        <route edges="v13 v12"/>
    </vehicle>
    <vehicle id="170" depart="173.0">
        <route edges="v12 -h12 -v22 -h23"/>
    </vehicle>
    <vehicle id="171" depart="175.0">
        <route edges="-h11 -h12 -v22 -h23"/>
    </vehicle>
    <vehicle id="173" depart="175.0">
        <route edges="v23 v22 h12 -v12"/>
    </vehicle>
    <vehicle id="174" depart="176.0">
        <route edges="h22 v12 -h12 -v22"/>
    </vehicle>
    <vehicle id="175" depart="177.0">
        <route edges="v23 h22 v12 h11"/>
    </vehicle>
    <vehicle id="176" depart="177.0">
        <route edges="v23 v22 -h13"/>
    </vehicle>
    <vehicle id="177" depart="178.0">
        <route edges="v23 v22 h12 -v12 -h22"/>
    </vehicle>
    <vehicle id="178" depart="179.0">
        <route edges="v23 v22 h12 -v12"/>
    </vehicle>
    <vehicle id="179" depart="180.0">
        <route edges="-h12 -v22"/>
    </vehicle>
    <vehicle id="180" depart="180.0">
        <route edges="h23 h22 -v13"/>
    </vehicle>
    <vehicle id="181" depart="180.0">
        <route edges="h13 h12 h11"/>
    </vehicle>
    <vehicle id="182" depart="181.0">
        <route edges="-v21 h12"/>
    </vehicle>
    <vehicle id="183" depart="182.0">
        <route edges="-v11 -h12 -v22 h22"/>
    </vehicle>
    <vehicle id="184" depart="182.0">
        <route edges="-h11 -h12 v21"/>
    </vehicle>
    <vehicle id="186" depart="182.0">
        <route edges="h23 h22 h21"/>
    </vehicle>
    <vehicle id="187" depart="182.0">
        <route edges="-v12 -h22 v22 -h13"/>
    </vehicle>
    <vehicle id="188" depart="183.0">
        <route edges="h22 -v13"/>
    </vehicle>
    <vehicle id="190" depart="183.0">
        <route edges="h23 v22 h12 -v12"/>
    </vehicle>
    <vehicle id="191" depart="184.0">
        <route edges="-v11 -h12 -v22"/>
    </vehicle>
    <vehicle id="192" depart="184.0">
        <route edges="-v21 h12 -v12"/>
    </vehicle>
    <vehicle id="193" depart="186.0">
        <route edges="-h21 v12 -h12 -v22"/>
    </vehicle>
    <vehicle id="194" depart="186.0">
        <route edges="v23 h22 h21"/>
    </vehicle>
    <vehicle id="195" depart="186.0">
        <route edges="v22 h12"/>
    </vehicle>
    <vehicle id="196" depart="186.0">
        <route edges="-v11 h11"/>
    </vehicle>
    <vehicle id="197" depart="187.0">
        <route edges="-h11 -v12"/>
    </vehicle>
    <vehicle id="198" depart="187.0">
        <route edges="-v21 h12"/>
    </vehicle>
    <vehicle id="199" depart="187.0">
        <route edges="h22 v12 -h12 -v22 -v23"/>
    </vehicle>
    <vehicle id="200" depart="187.0">
        <route edges="-v22 -h23"/>
    </vehicle>
    <vehicle id="201" depart="188.0">
        <route edges="-v22 h22 v12 -h12 v21"/>
    </vehicle>
    <vehicle id="203" depart="188.0">
        <route edges="-h12 -v22 h22 v12 h11"/>
    </vehicle>
    <vehicle id="204" depart="188.0">
        <route edges="h22 -v13"/>
    </vehicle>
    <vehicle id="205" depart="188.0">
        <route edges="v13 v12 v11"/>
    </vehicle>
    <vehicle id="206" depart="189.0">
        <route edges="h22 v12 -h12 -v22 -h23"/>
    </vehicle>
    <vehicle id="208" depart="190.0">
        <route edges="-h22 -v23"/>
    </vehicle>
    <vehicle id="209" depart="191.0">
        <route edges="v13 -h22 v22 -h13"/>
    </vehicle>
    <vehicle id="210" depart="192.0">
        <route edges="-v21 h12 -v12 h21"/>
    </vehicle>
    <vehicle id="212" depart="192.0">
        <route edges="-v22 -h23"/>
    </vehicle>
    <vehicle id="213" depart="192.0">
        <route edges="h22 v12 -h12"/>
    </vehicle>
    <vehicle id="214" depart="193.0">
        <route edges="v12 v11"/>
    </vehicle>
    <vehicle id="215" depart="194.0">
        <route edges="-h12 -v22"/>
    </vehicle>
    <vehicle id="216" depart="194.0">
        <route edges="-h21 -h22 v22"/>
    </vehicle>
    <vehicle id="219" depart="194.0">
        <route edges="-v22 h22 v12 v11"/>
    </vehicle>
    <vehicle id="221" depart="195.0">
        <route edges="h13 h12 -v12 -h22 v22"/>
    </vehicle>
    <vehicle id="222" depart="195.0">
        <route edges="v22 h12"/>
    </vehicle>
    <vehicle id="223" depart="196.0">
        <route edges="h23 h22 v12 h11"/>
    </vehicle>
    <vehicle id="224" depart="196.0">
        <route edges="v13 v12 h11"/>
    </vehicle>
    <vehicle id="227" depart="196.0">
        <route edges="-h22 v22 h12 -v12 h21"/>
    </vehicle>
    <vehicle id="228" depart="197.0">
        <route edges="v12 h11"/>
    </vehicle>
    <vehicle id="231" depart="197.0">
        <route edges="-v11 -v12 -v13"/>
    </vehicle>
    <vehicle id="232" depart="198.0">
        <route edges="h12 -v12 -h22"/>
    </vehicle>
    <vehicle id="234" depart="198.0">
        <route edges="h23 v22 -h13"/>
    </vehicle>
    <vehicle id="235" depart="198.0">
        <route edges="-v21 h12 h11"/>
    </vehicle>
    <vehicle id="236" depart="199.0">
        <route edges="-v21 -v22 -h23"/>
    </vehicle>
    <vehicle id="237" depart="199.0">
        <route edges="-v21 -v22 h22 v12 -h12 v21"/>
    </vehicle>
    <vehicle id="238" depart="200.0">
        <route edges="h13 -v22 h22"/>
    </vehicle>
    <vehicle id="239" depart="200.0">
        <route edges="v13 v12 v11"/>
    </vehicle>
    <vehicle id="240" depart="201.0">
        <route edges="-v21 -v22 h22 v12 -h12"/>
    </vehicle>
    <vehicle id="241" depart="202.0">
        <route edges="-v12 -h22 v22 h12 v11"/>
    </vehicle>
    <vehicle id="242" depart="202.0">
        <route edges="v13 -h22 v22"/>
    </vehicle>
    <vehicle id="243" depart="204.0">
        <route edges="-v21 -v22 h22"/>
    </vehicle>
    <vehicle id="244" depart="204.0">
        <route edges="h12"/>
    </vehicle>
    <vehicle id="245" depart="204.0">
        <route edges="-h22 -h23"/>
    </vehicle>
    <vehicle id="246" depart="204.0">
        <route edges="-v21 -v22 h22 v12 -h12"/>
    </vehicle>
    <vehicle id="247" depart="204.0">
        <route edges="-v12 h21"/>
    </vehicle>
    <vehicle id="248" depart="205.0">
        <route edges="-v21 h12 -v12 -h22"/>
    </vehicle>
    <vehicle id="250" depart="205.0">
        <route edges="h13 -v22 h22 v12 -h12"/>
    </vehicle>
    <vehicle id="251" depart="206.0">
        <route edges="-v21 h12"/>
    </vehicle>
    <vehicle id="252" depart="206.0">
        <route edges="-h11 -v12 h21"/>
    </vehicle>
    <vehicle id="253" depart="206.0">
        <route edges="-h21 -h22 -v23"/>
    </vehicle>
    <vehicle id="254" depart="207.0">
        <route edges="-h11 -h12 -v22"/>
    </vehicle>
    <vehicle id="255" depart="207.0">
        <route edges="-h22 v22 h12 -v12 -v13"/>
    </vehicle>
    <vehicle id="256" depart="208.0">
        <route edges="v12 -h12 -v22"/>
    </vehicle>
    <vehicle id="257" depart="208.0">
        <route edges="v12"/>
    </vehicle>
    <vehicle id="258" depart="209.0">
        <route edges="-v11 -h12 -h13"/>
    </vehicle>
    <vehicle id="259" depart="209.0">
        <route edges="-h11 -h12 -v22 h22 v12 h11"/>
    </vehicle>
    <vehicle id="260" depart="210.0">
        <route edges="v23 h22 -v13"/>
    </vehicle>
    <vehicle id="261" depart="210.0">
        <route edges="h22 v12 v11"/>
    </vehicle>
    <vehicle id="262" depart="211.0">
        <route edges="h22 v12 v11"/>
    </vehicle>
    <vehicle id="263" depart="213.0">
        <route edges="v23 -h23"/>
    </vehicle>
    <vehicle id="264" depart="213.0">
        <route edges="-h11 -v12 -h22"/>
    </vehicle>
    <vehicle id="265" depart="214.0">
        <route edges="-h21 v12 -h12 -v22 h22 h21"/>
    </vehicle>
    <vehicle id="266" depart="214.0">
        <route edges="h13 -v22 -h23"/>
    </vehicle>
    <vehicle id="267" depart="214.0">
        <route edges="h23 v22 h12 v11"/>
    </vehicle>
    <vehicle id="268" depart="214.0">
        <route edges="-h21 -h22 v22 h12"/>
    </vehicle>
    <vehicle id="269" depart="215.0">
        <route edges="h23 v22 -h13"/>
    </vehicle>
    <vehicle id="270" depart="216.0">
        <route edges="v13 -h22 v22"/>
    </vehicle>
    <vehicle id="271" depart="216.0">
        <route edges="-h12"/>
    </vehicle>
    <vehicle id="272" depart="216.0">
        <route edges="-v11 -v12 h21"/>
    </vehicle>
    <vehicle id="273" depart="217.0">
        <route edges="v23 h22 v12 -h12 -v22"/>
    </vehicle>
    <vehicle id="274" depart="217.0">
        <route edges="h23 v22 -h13"/>
    </vehicle>
    <vehicle id="275" depart="219.0">
        <route edges="h23 h22 h21"/>
    </vehicle>
    <vehicle id="276" depart="219.0">
        <route edges="-h12 -v22 h22 v12 v11"/>
    </vehicle>
    <vehicle id="277" depart="220.0">
        <route edges="v13 -h22 v22 h12"/>
    </vehicle>
    <vehicle id="279" depart="220.0">
        <route edges="v12 -h12 -v22 h22 -v13"/>
    </vehicle>
    <vehicle id="280" depart="220.0">
        <route edges="-v21 -v22 h22 -v13"/>
    </vehicle>
    <vehicle id="281" depart="220.0">
        <route edges="h12 -v12 -v13"/>
    </vehicle>
    <vehicle id="282" depart="221.0">
        <route edges="v13 v12"/>
    </vehicle>
    <vehicle id="284" depart="221.0">
        <route edges="h22 v12"/>
    </vehicle>
    <vehicle id="285" depart="223.0">
        <route edges="h23 h22 v12 -h12 -v22"/>
    </vehicle>
    <vehicle id="286" depart="224.0">
        <route edges="h23 v22"/>
    </vehicle>
    <vehicle id="287" depart="224.0">
        <route edges="-v11 -h12 -v22 h22 v12 v11"/>
    </vehicle>
    <vehicle id="288" depart="224.0">
        <route edges="h12 -v12 -h22 -v23"/>
    </vehicle>
    <vehicle id="289" depart="224.0">
        <route edges="-v21 -v22 h22"/>
    </vehicle>
    <vehicle id="290" depart="226.0">
        <route edges="-v11 -h12 -v22 h22 v12"/>
    </vehicle>
    <vehicle id="291" depart="227.0">
        <route edges="v13 -h22 v22 -h13"/>
    </vehicle>
    <vehicle id="292" depart="227.0">
        <route edges="v22 h12 -v12 -h22 -h23"/>
    </vehicle>
    <vehicle id="294" depart="227.0">
        <route edges="-v21 -v22 h22 v12 -h12"/>
    </vehicle>
    <vehicle id="295" depart="227.0">
        <route edges="v13 -h22"/>
    </vehicle>
    <vehicle id="296" depart="230.0">
        <route edges="-h22 v22 h12 v11"/>
    </vehicle>
    <vehicle id="297" depart="230.0">
        <route edges="-v12 -h22 v22 v21"/>
    </vehicle>
    <vehicle id="298" depart="230.0">
        <route edges="h23 v22 h12 -v12"/>
    </vehicle>
    <vehicle id="299" depart="230.0">
        <route edges="-h11 -v12 -h22 v22"/>
    </vehicle>
    <vehicle id="300" depart="231.0">
        <route edges="-h12 -v22 h22"/>
    </vehicle>
    <vehicle id="301" depart="231.0">
        <route edges="-v22 h22 v12 v11"/>
    </vehicle>
    <vehicle id="302" depart="231.0">
        <route edges="h23 h22 h21"/>
    </vehicle>
    <vehicle id="303" depart="231.0">
        <route edges="-v22 h22 v12 v11"/>
    </vehicle>
    <vehicle id="304" depart="232.0">
        <route edges="-h12 -v22 -h23"/>
    </vehicle>
    <vehicle id="305" depart="232.0">
        <route edges="h23 v22 h12 -v12"/>
    </vehicle>
    <vehicle id="306" depart="232.0">
        <route edges="h13 -v22 -v23"/>
    </vehicle>
    <vehicle id="308" depart="232.0">
        <route edges="h23 h22 -v13"/>
    </vehicle>
    <vehicle id="309" depart="233.0">
        <route edges="h23 v22 h12 -v12"/>
    </vehicle>
    <vehicle id="310" depart="233.0">
        <route edges="-v11 -h12 -h13"/>
    </vehicle>
    <vehicle id="311" depart="234.0">
        <route edges="-h22 v22 -h13"/>
    </vehicle>
    <vehicle id="312" depart="234.0">
        <route edges="h12 v11"/>
    </vehicle>
    <vehicle id="313" depart="234.0">
        <route edges="-h21 -h22 -h23"/>
    </vehicle>
    <vehicle id="314" depart="235.0">
        <route edges="-v22 h22"/>
    </vehicle>
    <vehicle id="315" depart="235.0">
        <route edges="v23 h22 v12 h11"/>
    </vehicle>
    <vehicle id="316" depart="236.0">
        <route edges="-v11 -h12 -h13"/>
    </vehicle>
    <vehicle id="317" depart="236.0">
        <route edges="-h22 -h23"/>
    </vehicle>
    <vehicle id="318" depart="236.0">
        <route edges="-h21 v12 -h12"/>
    </vehicle>
    <vehicle id="319" depart="236.0">
        <route edges="h12 -v12"/>
    </vehicle>
    <vehicle id="320" depart="237.0">
        <route edges="v23 h22 v12 h11"/>
    </vehicle>
    <vehicle id="321" depart="237.0">
        <route edges="h23 v22 h12 -v12 -h22"/>
    </vehicle>
    <vehicle id="322" depart="238.0">
        <route edges="v13 -h22 -v23"/>
    </vehicle>
    <vehicle id="323" depart="239.0">
        <route edges="v13 -h22 v22 h12"/>
    </vehicle>
    <vehicle id="324" depart="239.0">
        <route edges="-v22 -v23"/>
    </vehicle>
    <vehicle id="325" depart="239.0">
        <route edges="-h21 v12 -h12"/>
    </vehicle>
    <vehicle id="326" depart="239.0">
        <route edges="v23 h22 v12 -h12 -v22 -v23"/>
    </vehicle>
    <vehicle id="327" depart="240.0">
        <route edges="v13 v12 -h12 -v22"/>
    </vehicle>
    <vehicle id="328" depart="241.0">
        <route edges="-h12 -v22 h22 h21"/>
    </vehicle>
    <vehicle id="329" depart="241.0">
        <route edges="-h11 -v12 -h22"/>
    </vehicle>
    <vehicle id="330" depart="241.0">
        <route edges="h13 h12 -v12"/>
    </vehicle>
    <vehicle id="331" depart="242.0">
        <route edges="v23 v22 -h13"/>
    </vehicle>
    <vehicle id="333" depart="242.0">
        <route edges="v12 -h12 -v22 -h23"/>
    </vehicle>
    <vehicle id="334" depart="243.0">
        <route edges="h12 -v12 -h22 -v23"/>
    </vehicle>
    <vehicle id="335" depart="244.0">
        <route edges="-v22 h22 v12"/>
    </vehicle>
    <vehicle id="336" depart="244.0">
        <route edges="v23 v22 h12 -v12"/>
    </vehicle>
    <vehicle id="337" depart="244.0">
        <route edges="h13 h12"/>
    </vehicle>
    <vehicle id="338" depart="244.0">
        <route edges="h23 v22"/>
    </vehicle>
    <vehicle id="339" depart="244.0">
        <route edges="-h22 -h23"/>
    </vehicle>
    <vehicle id="341" depart="244.0">
        <route edges="-h21 v12 -h12 -h13"/>
    </vehicle>
    <vehicle id="342" depart="244.0">
        <route edges="-h11 -v12 -h22 -v23"/>
    </vehicle>
    <vehicle id="343" depart="244.0">
        <route edges="h13 h12 -v12"/>
    </vehicle>
    <vehicle id="345" depart="245.0">
        <route edges="h23 -v23"/>
    </vehicle>
    <vehicle id="346" depart="245.0">
        <route edges="h22 v12 -h12 v21"/>
    </vehicle>
    <vehicle id="347" depart="245.0">
        <route edges="v12 -h12 -v22 h22 h21"/>
    </vehicle>
    <vehicle id="348" depart="247.0">
        <route edges="h22 v12 -h12 v21"/>
    </vehicle>
    <vehicle id="349" depart="247.0">
        <route edges="-v21 h12 h11"/>
    </vehicle>
    <vehicle id="350" depart="247.0">
        <route edges="h22 v12 -h12 v21"/>
    </vehicle>
    <vehicle id="351" depart="247.0">
        <route edges="v13 -h22 v22 -h13"/>
    </vehicle>
    <vehicle id="352" depart="247.0">
        <route edges="-h21 -h22 v22 h12 -v12"/>
    </vehicle>
    <vehicle id="353" depart="247.0">
        <route edges="h23 v22 h12"/>
    </vehicle>
    <vehicle id="354" depart="248.0">
        <route edges="-v11 -h12 -h13"/>
    </vehicle>
    <vehicle id="355" depart="249.0">